<?xml version='1.0' encoding='utf-8'?>
<routes xmlns:xsi="http://www.w3.org/2001/XMLSchema-instance" xsi:noNamespaceSchemaLocation="http://sumo.dlr.de/xsd/routes_file.xsd">
<flow id="flow_4798001" 
       begin="0" 
       end="28000" 
       departLane="random" 
       departPos="random" 
       departSpeed="random" 
       period="2"   
       from="741090362" 
       to="741096486" />

       <flow id="flow_47980101" 
       begin="0" 
       end="28000" 
       departLane="random" 
       departPos="random" 
       departSpeed="random" 
       period="2"   
       from="738669701" 
       to="Node1_WB_2_Exit" />

<flow id="flow_479801031" 
       begin="0" 
       end="28000" 
       departLane="random" 
       departPos="random" 
       departSpeed="random" 
       period="2"   
       from="740747526#0" 
       to="Node1_WB_2_Exit" />

<flow id="flow_3525" begin="0" 
      end="28000" departLane="random"
       departPos="random" 
       departSpeed="random" 
       period="2"   
       from="741090362" 
       to="429400165#1" />


<flow id="flow_3525001" begin="0" 
      end="28000" departLane="random"
       departPos="random" 
       departSpeed="random" 
       period="2"   
       from="429783138" 
       to="150995461#1" />


<flow id="flow_3525005" begin="0" 
      end="28000" departLane="random"
       departPos="random" 
       departSpeed="random" 
       period="2"   
       from="150995466" 
       to="150995461#1" />

<flow id="flow_4132" 
       begin="0" 
       end="28000" 
       departLane="random" 
       departPos="random" 
       departSpeed="random" 
       period="2"   
       from="741090362" 
       to="540007462#1-AddedOnRampEdge" />

<flow id="flow_4798" 
       begin="0" 
       end="28000" 
       departLane="random" 
       departPos="random" 
       departSpeed="random" 
       period="2"   
       from="741090362" 
       to="-230883216" />

<flow id="flow_11262" 
       begin="0" 
       end="28000" 
       departLane="random" 
       departPos="random" 
       departSpeed="random" 
       period="2"   
       from="741090362" 
       to="-220026399#0" />

<flow id="flow_12400" 
       begin="0" 
       end="28000" 
       departLane="random" 
       departPos="random" 
       departSpeed="random" 
       period="2"   
       from="741090362" 
       to="-5077438#0" />

<flow id="flow_12711" 
       begin="0" 
       end="28000" 
       departLane="random" 
       departPos="random" 
       departSpeed="random" 
       period="2"   
       from="741090362" 
       to="741115627#6" />

<flow id="flow_12965" 
       begin="0" 
       end="28000" 
       departLane="random" 
       departPos="random" 
       departSpeed="random" 
       period="2"   
       from="741090362" 
       to="-27795219#2" />

<flow id="flow_13422" 
       begin="0" 
       end="28000" 
       departLane="random" 
       departPos="random" 
       departSpeed="random" 
       period="2"   
       from="741090362" 
       to="388915796#2" />

<flow begin="0" 
       departLane="random" 
       departPos="random" 
       departSpeed="random" 
       end="28000" 
       from="-741115627#7" 
       id="flow_406" 
       period="2" 
       to="23541047#3"/>

<flow begin="0"
      departLane="random"
      departPos="random"
      departSpeed="random"
      end="28000"
      from="-741115627#7"
      id="flow_3351"
      period="2"
      to="7975891#1"/>

<flow begin="0"
      departLane="random"
      departPos="random"
      departSpeed="random"
      end="28000"
      from="-741115627#7"
      id="flow_5451"
      period="2"
      to="7975895#2"/>

<flow begin="0"
      departLane="random"
      departPos="random"
      departSpeed="random"
      end="28000"
      from="-741115627#7"
      id="flow_6849"
      period="2"
      to="740543891#0"/>

<flow begin="0"
      departLane="random"
      departPos="random"
      departSpeed="random"
      end="28000"
      from="-741115627#7"
      id="flow_7205"
      period="2"
      to="23541047#7"/>

<flow begin="0"
      departLane="random"
      departPos="random"
      departSpeed="random"
      end="28000"
      from="-741115627#7"
      id="flow_8700"
      period="2"
      to="88362650#2"/>

<flow begin="0"
      departLane="random"
      departPos="random"
      departSpeed="random"
      end="28000"
      from="-741115627#7"
      id="flow_9627"
      period="2"
      to="5492198#0"/>

<flow begin="0"
      departLane="random"
      departPos="random"
      departSpeed="random"
      end="28000"
      from="-741115627#7"
      id="flow_10712"
      period="2"
      to="5078068#2"/>

<flow begin="0"
      departLane="random"
      departPos="random"
      departSpeed="random"
      end="28000"
      from="-741115627#7"
      id="flow_13386"
      period="2"
      to="809404855#3"/>

<flow begin="0"
      departLane="random"
      departPos="random"
      departSpeed="random"
      end="28000"
      from="-741115627#7"
      id="flow_13546"
      period="2"
      to="740541603#2"/>

<flow begin="0"
      departLane="random"
      departPos="random"
      departSpeed="random"
      end="28000"
      from="-741115627#7"
      id="flow_13905"
      period="2"
      to="-30906122#1"/>


<flow begin="0"
      departLane="random"
      departPos="random"
      departSpeed="random"
      end="28000"
      from="742233033"
      id="flow_1395"
      period="2"
      to="-741115627#6"/>

<flow begin="0"
      departLane="random"
      departPos="random"
      departSpeed="random"
      end="28000"
      from="742233033"
      id="flow_2542"
      period="2"
      to="5077438#2"/>

<flow begin="0"
      departLane="random"
      departPos="random"
      departSpeed="random"
      end="28000"
      from="742233033"
      id="flow_4502"
      period="2"
      to="809404855#1"/>

<flow begin="0"
      departLane="random"
      departPos="random"
      departSpeed="random"
      end="28000"
      from="742233033"
      id="flow_7606"
      period="2"
      to="5078168#0"/>

<flow begin="0"
      departLane="random"
      departPos="random"
      departSpeed="random"
      end="28000"
      from="742233033"
      id="flow_9323"
      period="2"
      to="-24648918#0"/>

<flow begin="0"
      departLane="random"
      departPos="random"
      departSpeed="random"
      end="28000"
      from="742233033"
      id="flow_10205"
      period="2"
      to="-230883211#1"/>

<flow begin="0"
      departLane="random"
      departPos="random"
      departSpeed="random"
      end="28000"
      from="742233033"
      id="flow_11963"
      period="2"
      to="-5077469#0"/>

<flow begin="0"
      departLane="random"
      departPos="random"
      departSpeed="random"
      end="28000"
      from="742233033"
      id="flow_12593"
      period="2"
      to="252231751#1"/>

<flow begin="0"
      departLane="random"
      departPos="random"
      departSpeed="random"
      end="28000"
      from="742233033"
      id="flow_12922"
      period="2"
      to="809410640#1"/>

<flow begin="0"
      departLane="random"
      departPos="random"
      departSpeed="random"
      end="28000"
      from="740747526#0"
      id="flow_16"
      period="2"
      to="809129465#1"/>
<flow begin="0"
      departLane="random"
      departPos="random"
      departSpeed="random"
      end="28000"
      from="740747526#0"
      id="flow_873"
      period="2"
      to="-5078292#2"/>

<flow begin="0"
      departLane="random"
      departPos="random"
      departSpeed="random"
      end="28000"
      from="740747526#0"
      id="flow_1970"
      period="2"
      to="741115621#0"/>

<flow begin="0"
      departLane="random"
      departPos="random"
      departSpeed="random"
      end="28000"
      from="740747526#0"
      id="flow_3018"
      period="2"
      to="-429400164"/>

<flow begin="0"
      departLane="random"
      departPos="random"
      departSpeed="random"
      end="28000"
      from="740747526#0"
      id="flow_3055"
      period="2"
      to="20335070#2"/>

<flow begin="0"
      departLane="random"
      departPos="random"
      departSpeed="random"
      end="28000"
      from="740747526#0"
      id="flow_8369"
      period="2"
      to="5078247#1"/>

<flow begin="0"
      departLane="random"
      departPos="random"
      departSpeed="random"
      end="28000"
      from="740747526#0"
      id="flow_9586"
      period="2"
      to="17666829#2"/>

<flow begin="0"
      departLane="random"
      departPos="random"
      departSpeed="random"
      end="28000"
      from="740747526#0"
      id="flow_12160"
      period="2"
      to="23310758"/>

<flow begin="0"
      departLane="random"
      departPos="random"
      departSpeed="random"
      end="28000"
      from="740747526#0"
      id="flow_12381"
      period="2"
      to="4268194#0"/>

    <flow begin="0"
      departLane="random"
      departPos="random"
      departSpeed="random"
      end="28000"
      from="741092173"
      id="flow_5066"
      period="2"
      to="230883220#2"/>

<flow begin="0"
      departLane="random"
      departPos="random"
      departSpeed="random"
      end="28000"
      from="741092173"
      id="flow_5314"
      period="2"
      to="24583616"/>

<flow begin="0"
      departLane="random"
      departPos="random"
      departSpeed="random"
      end="28000"
      from="741092173"
      id="flow_7789"
      period="2"
      to="-388915800#0"/>

<flow begin="0"
      departLane="random"
      departPos="random"
      departSpeed="random"
      end="28000"
      from="741092173"
      id="flow_8975"
      period="2"
      to="27795223#1"/>

<flow begin="0"
      departLane="random"
      departPos="random"
      departSpeed="random"
      end="28000"
      from="741092173"
      id="flow_9298"
      period="2"
      to="230883220#1"/>

<flow begin="0"
      departLane="random"
      departPos="random"
      departSpeed="random"
      end="28000"
      from="741092173"
      id="flow_10171"
      period="2"
      to="24646280#2"/>

<flow begin="0"
      departLane="random"
      departPos="random"
      departSpeed="random"
      end="28000"
      from="741092173"
      id="flow_10902"
      period="2"
      to="666005684#2"/>

<flow begin="0"
      departLane="random"
      departPos="random"
      departSpeed="random"
      end="28000"
      from="741092173"
      id="flow_12921"
      period="2"
      to="429400164"/>

<flow begin="0"
      departLane="random"
      departPos="random"
      departSpeed="random"
      end="28000"
      from="-220026399#1"
      id="flow_1191"
      period="24.00"
      to="23543703#0"/>

<flow begin="0"
      departLane="random"
      departPos="random"
      departSpeed="random"
      end="28000"
      from="-220026399#1"
      id="flow_2214"
      period="24.00"
      to="-27795184#0"/>

<flow begin="0"
      departLane="random"
      departPos="random"
      departSpeed="random"
      end="28000"
      from="-220026399#1"
      id="flow_2900"
      period="24.00"
      to="540007462#1-AddedOnRampEdge"/>

<flow begin="0"
      departLane="random"
      departPos="random"
      departSpeed="random"
      end="28000"
      from="-220026399#1"
      id="flow_3144"
      period="24.00"
      to="-24648925#2"/>

<flow begin="0"
      departLane="random"
      departPos="random"
      departSpeed="random"
      end="28000"
      from="-220026399#1"
      id="flow_4350"
      period="24.00"
      to="5078289#1"/>

<flow begin="0"
      departLane="random"
      departPos="random"
      departSpeed="random"
      end="28000"
      from="-220026399#1"
      id="flow_4373"
      period="24.00"
      to="15801633#2"/>

<flow begin="0"
      departLane="random"
      departPos="random"
      departSpeed="random"
      end="28000"
      from="-220026399#1"
      id="flow_6241"
      period="24.00"
      to="24646280#1"/>

<flow begin="0"
      departLane="random"
      departPos="random"
      departSpeed="random"
      end="28000"
      from="-220026399#1"
      id="flow_8902"
      period="24.00"
      to="-230883211#1"/>

<flow begin="0"
      departLane="random"
      departPos="random"
      departSpeed="random"
      end="28000"
      from="-220026399#1"
      id="flow_9392"
      period="24.00"
      to="27702189#6"/>
      
      <flow begin="0"
      departLane="random"
      departPos="random"
      departSpeed="random"
      end="28000"
      from="-220026399#1"
      id="flow_9928"
      period="24.00"
      to="230883174"/>

<flow begin="0"
      departLane="random"
      departPos="random"
      departSpeed="random"
      end="28000"
      from="-220026399#1"
      id="flow_11231"
      period="24.00"
      to="741127117#1"/>

<flow begin="0"
      departLane="random"
      departPos="random"
      departSpeed="random"
      end="28000"
      from="-220026399#1"
      id="flow_13226"
      period="24.00"
      to="5105232#1"/>

<flow begin="0"
      departLane="random"
      departPos="random"
      departSpeed="random"
      end="28000"
      from="-220026399#1"
      id="flow_14114"
      period="24.00"
      to="-809058637#3"/>


      <flow begin="0"
      departLane="random"
      departPos="random"
      departSpeed="random"
      end="28000"
      from="-150995466"
      id="flow_2172"
      period="2"
      to="17666817#4"/>


<flow begin="0"
      departLane="random"
      departPos="random"
      departSpeed="random"
      end="28000"
      from="-150995466"
      id="flow_5856"
      period="2"
      to="739627862"/>

<flow begin="0"
      departLane="random"
      departPos="random"
      departSpeed="random"
      end="28000"
      from="-150995466"
      id="flow_9818"
      period="2"
      to="4268194#0"/>

<flow begin="0"
      departLane="random"
      departPos="random"
      departSpeed="random"
      end="28000"
      from="-150995466"
      id="flow_11881"
      period="2"
      to="230883220#2"/>

<flow begin="0"
      departLane="random"
      departPos="random"
      departSpeed="random"
      end="28000"
      from="429783138"
      id="flow_302"
      period="2"
      to="24651585#0"/>

<flow begin="0"
      departLane="random"
      departPos="random"
      departSpeed="random"
      end="28000"
      from="429783138"
      id="flow_3843"
      period="2"
      to="24583615"/>

<flow begin="0" departLane="random"
      departPos="random"
      departSpeed="random"
      end="28000"
      from="429783138"
      id="flow_5336"
      period="2"
      to="37585474#2"/>

<flow begin="0"
      departLane="random"
      departPos="random"
      departSpeed="random"
      end="28000"
      from="429783138"
      id="flow_5450"
      period="2"
      to="-23541047#3"/>

<flow begin="0"
      departLane="random"
      departPos="random"
      departSpeed="random"
      end="28000"
      from="429783138"
      id="flow_6002"
      period="2"
      to="15801638#3"/>

<flow begin="0"
      departLane="random"
      departPos="random"
      departSpeed="random"
      end="28000"
      from="429783138"
      id="flow_6746"
      period="2"
      to="5078132#5"/>

<flow begin="0"
      departLane="random"
      departPos="random"
      departSpeed="random"
      end="28000"
      from="429783138"
      id="flow_7859"
      period="2"
      to="27795209#2"/>

<flow begin="0"
      departLane="random"
      departPos="random"
      departSpeed="random"
      end="28000"
      from="429783138"
      id="flow_8895"
      period="2"
      to="-809058637#0"/>

<flow begin="0"
      departLane="random"
      departPos="random"
      departSpeed="random"
      end="28000"
      from="429783138"
      id="flow_9225"
      period="2"
      to="-150995458#2"/>

<flow begin="0"
      departLane="random"
      departPos="random"
      departSpeed="random"
      end="28000"
      from="429783138"
      id="flow_13816"
      period="2"
      to="24583620#4"/>

<flow begin="0"
      departLane="random"
      departPos="random"
      departSpeed="random"
      end="28000"
      from="64432381"
      id="flow_35"
      period="2"
      to="-741041387#1"/>

<flow begin="0"
      departLane="random"
      departPos="random"
      departSpeed="random"
      end="28000"
      from="64432381"
      id="flow_404"
      period="2"
      to="-741115627#2"/>



<flow begin="0"
      departLane="random"
      departPos="random"
      departSpeed="random"
      end="28000"
      from="64432381"
      id="flow_5831"
      period="2"
      to="-5078246"/>

<flow begin="0"
      departLane="random"
      departPos="random"
      departSpeed="random"
      end="28000"
      from="64432381"
      id="flow_11341"
      period="2"
      to="429702365"/>
<flow begin="0"
      departLane="random"
      departPos="random"
      departSpeed="random"
      end="28000"
      from="64432381"
      id="flow_11825"
      period="2"
      to="24646274#4"/>

<flow begin="0"
      departLane="random"
      departPos="random"
      departSpeed="random"
      end="28000"
      from="64432381"
      id="flow_12553"
      period="2"
      to="27795200"/>


</routes>