<?xml version="1.0" encoding="UTF-8"?>

<!-- generated on 2025-07-25 13:25:41 by Eclipse SUMO sumo Version 1.22.0
-->

<sumoConfiguration xmlns:xsi="http://www.w3.org/2001/XMLSchema-instance" xsi:noNamespaceSchemaLocation="http://sumo.dlr.de/xsd/sumoConfiguration.xsd">

    <input>
        <net-file value="CenturyCityNode1_V1.net.xml"/>
        <additional-files value="CenturyCityNode1_V1.add.xml"/>
        <route-files value="CenturyCityNode1_V1.rou.xml"/>
    </input>

</sumoConfiguration>
