<?xml version='1.0' encoding='utf-8'?>
<routes xmlns:xsi="http://www.w3.org/2001/XMLSchema-instance" xsi:noNamespaceSchemaLocation="http://sumo.dlr.de/xsd/routes_file.xsd"><flow id="flow_0" begin="0" end="28000" departLane="best" departPos="random" departSpeed="max" period="2.40"   from="-5078292#1" to="-429924375#0" /><flow id="flow_2" begin="0" end="28000" departLane="best" departPos="random" departSpeed="max" period="2.40"   from="-30906146#2" to="388915798#1" /><flow id="flow_3" begin="0" end="28000" departLane="best" departPos="random" departSpeed="max" period="2.40"   from="5130793#5" to="429627480#1" /><flow id="flow_4" begin="0" end="28000" departLane="best" departPos="random" departSpeed="max" period="2.40"   from="809410646" to="-88362649#1" /><flow id="flow_5" begin="0" end="28000" departLane="best" departPos="random" departSpeed="max" period="2.40"   from="-23541047#14" to="739897707#0" /><flow id="flow_6" begin="0" end="28000" departLane="best" departPos="random" departSpeed="max" period="2.40"   from="-429783129" to="-666005684#2" /><flow id="flow_9" begin="0" end="28000" departLane="best" departPos="random" departSpeed="max" period="2.40"   from="-745392432" to="-5078292#2" /><flow id="flow_11" begin="0" end="28000" departLane="best" departPos="random" departSpeed="max" period="2.40"   from="15801625#1" to="E1" /><flow id="flow_12" begin="0" end="28000" departLane="best" departPos="random" departSpeed="max" period="2.40"   from="429783158#0" to="429321790#1" /><flow id="flow_14" begin="0" end="28000" departLane="best" departPos="random" departSpeed="max" period="2.40"   from="5078043#2" to="24648920#5" /><flow id="flow_16" begin="0" end="28000" departLane="best" departPos="random" departSpeed="max" period="2.40"   from="740747526#0" to="809129465#1" /><flow id="flow_17" begin="0" end="28000" departLane="best" departPos="random" departSpeed="max" period="2.40"   from="23310756#0" to="-230883198#0" /><flow id="flow_18" begin="0" end="28000" departLane="best" departPos="random" departSpeed="max" period="2.40"   from="230883220#0" to="24651586#1" /><flow id="flow_19" begin="0" end="28000" departLane="best" departPos="random" departSpeed="max" period="2.40"   from="-429400168#1" to="-88362650#1" /><flow id="flow_21" begin="0" end="28000" departLane="best" departPos="random" departSpeed="max" period="2.40"   from="-5077464#1" to="4268197" />
<flow id="flow_3525" begin="0" end="28000" departLane="best" departPos="random" departSpeed="max" period="2.40"   from="741090362" to="429400165#1" />
<flow id="flow_4132" begin="0" end="28000" departLane="best" departPos="random" departSpeed="max" period="2.40"   from="741090362" to="540007462#1-AddedOnRampEdge" />
<flow id="flow_4798" begin="0" end="28000" departLane="best" departPos="random" departSpeed="max" period="2.40"   from="741090362" to="-230883216" />
<flow id="flow_11262" begin="0" end="28000" departLane="best" departPos="random" departSpeed="max" period="2.40"   from="741090362" to="-220026399#0" />
<flow id="flow_12400" begin="0" end="28000" departLane="best" departPos="random" departSpeed="max" period="2.40"   from="741090362" to="-5077438#0" />
<flow id="flow_12711" begin="0" end="28000" departLane="best" departPos="random" departSpeed="max" period="2.40"   from="741090362" to="741115627#6" />
<flow id="flow_12965" begin="0" end="28000" departLane="best" departPos="random" departSpeed="max" period="2.40"   from="741090362" to="-27795219#2" />
<flow id="flow_13422" begin="0" end="28000" departLane="best" departPos="random" departSpeed="max" period="2.40"   from="741090362" to="388915796#2" />


<flow id="flow_24" begin="0" end="28000" departLane="best" departPos="random" departSpeed="max" period="2.40"   from="17666817#2" to="-88362650#2" /><flow id="flow_25" begin="0" end="28000" departLane="best" departPos="random" departSpeed="max" period="2.40"   from="E9" to="739610625#1" /><flow id="flow_26" begin="0" end="28000" departLane="best" departPos="random" departSpeed="max" period="2.40"   from="23310755#1" to="-394991539#1" /><flow id="flow_27" begin="0" end="28000" departLane="best" departPos="random" departSpeed="max" period="2.40"   from="150995465#1" to="88650498" /><flow id="flow_28" begin="0" end="28000" departLane="best" departPos="random" departSpeed="max" period="2.40"   from="-705507621#0" to="88362648#1" /><flow id="flow_31" begin="0" end="28000" departLane="best" departPos="random" departSpeed="max" period="2.40"   from="741115621#1" to="-5078069" /><flow id="flow_32" begin="0" end="28000" departLane="best" departPos="random" departSpeed="max" period="2.40"   from="230883190#2" to="E4" /><flow id="flow_33" begin="0" end="28000" departLane="best" departPos="random" departSpeed="max" period="2.40"   from="-38028104#1" to="-5078288" /><flow id="flow_34" begin="0" end="28000" departLane="best" departPos="random" departSpeed="max" period="2.40"   from="738669702" to="429657179#1" /><flow id="flow_35" begin="0" end="28000" departLane="best" departPos="random" departSpeed="max" period="2.40"   from="64432381" to="-741041387#1" /><flow id="flow_36" begin="0" end="28000" departLane="best" departPos="random" departSpeed="max" period="2.40"   from="-24646274#5" to="-24583621" /><flow id="flow_37" begin="0" end="28000" departLane="best" departPos="random" departSpeed="max" period="2.40"   from="220026399#0" to="-5130790#1" /><flow id="flow_38" begin="0" end="28000" departLane="best" departPos="random" departSpeed="max" period="2.40"   from="5078132#3" to="37585474#1" /><flow id="flow_39" begin="0" end="28000" departLane="best" departPos="random" departSpeed="max" period="2.40"   from="-230883211#1" to="741115621#0" /><flow id="flow_40" begin="0" end="28000" departLane="best" departPos="random" departSpeed="max" period="2.40"   from="-24648920#1" to="-741951493" /><flow id="flow_41" begin="0" end="28000" departLane="best" departPos="random" departSpeed="max" period="2.40"   from="5078168#2" to="741115622" /><flow id="flow_42" begin="0" end="28000" departLane="best" departPos="random" departSpeed="max" period="2.40"   from="7975895#0" to="740542374#0" /><flow id="flow_43" begin="0" end="28000" departLane="best" departPos="random" departSpeed="max" period="2.40"   from="4950814" to="-810553261" /><flow id="flow_44" begin="0" end="28000" departLane="best" departPos="random" departSpeed="max" period="2.40"   from="740543101#1" to="740541596" /><flow id="flow_45" begin="0" end="28000" departLane="best" departPos="random" departSpeed="max" period="2.40"   from="-27795225" to="-809410642" /><flow id="flow_48" begin="0" end="28000" departLane="best" departPos="random" departSpeed="max" period="2.40"   from="7975891#2" to="24648920#3" /><flow id="flow_49" begin="0" end="28000" departLane="best" departPos="random" departSpeed="max" period="2.40"   from="394991548#1" to="-809441426#0" /><flow id="flow_52" begin="0" end="28000" departLane="best" departPos="random" departSpeed="max" period="2.40"   from="23541047#3" to="30906146#6" /><flow id="flow_53" begin="0" end="28000" departLane="best" departPos="random" departSpeed="max" period="2.40"   from="-5078042#0" to="23310753#1" /><flow id="flow_54" begin="0" end="28000" departLane="best" departPos="random" departSpeed="max" period="2.40"   from="20795244#1" to="30906146#2" /><flow id="flow_55" begin="0" end="28000" departLane="best" departPos="random" departSpeed="max" period="2.40"   from="5077523#1" to="5078132#5" /><flow id="flow_57" begin="0" end="28000" departLane="best" departPos="random" departSpeed="max" period="2.40"   from="-5078043#3" to="739897707#1" /><flow id="flow_58" begin="0" end="28000" departLane="best" departPos="random" departSpeed="max" period="2.40"   from="-5130793#1" to="-5087934#1" /><flow id="flow_59" begin="0" end="28000" departLane="best" departPos="random" departSpeed="max" period="2.40"   from="-429924375#1" to="429463896#1" /><flow id="flow_60" begin="0" end="28000" departLane="best" departPos="random" departSpeed="max" period="2.40"   from="19992821" to="24648925#3" /><flow id="flow_61" begin="0" end="28000" departLane="best" departPos="random" departSpeed="max" period="2.40"   from="-88608399#3" to="5077823#2" /><flow id="flow_62" begin="0" end="28000" departLane="best" departPos="random" departSpeed="max" period="2.40"   from="-809404857" to="429321784#2" /><flow id="flow_63" begin="0" end="28000" departLane="best" departPos="random" departSpeed="max" period="2.40"   from="230883197#3" to="-24648920#4" /><flow id="flow_65" begin="0" end="28000" departLane="best" departPos="random" departSpeed="max" period="2.40"   from="30906146#7" to="-24651585#3" /><flow id="flow_66" begin="0" end="28000" departLane="best" departPos="random" departSpeed="max" period="2.40"   from="150995465#1" to="-388915800#2" /><flow id="flow_69" begin="0" end="28000" departLane="best" departPos="random" departSpeed="max" period="2.40"   from="666005684#1" to="8787737#3" /><flow id="flow_71" begin="0" end="28000" departLane="best" departPos="random" departSpeed="max" period="2.40"   from="429457297#0" to="30906146#1" /><flow id="flow_72" begin="0" end="28000" departLane="best" departPos="random" departSpeed="max" period="2.40"   from="5078132#5" to="739907573" /><flow id="flow_73" begin="0" end="28000" departLane="best" departPos="random" departSpeed="max" period="2.40"   from="88650489#0" to="5078247#1" /><flow id="flow_74" begin="0" end="28000" departLane="best" departPos="random" departSpeed="max" period="2.40"   from="810541428" to="315425948" /><flow id="flow_75" begin="0" end="28000" departLane="best" departPos="random" departSpeed="max" period="2.40"   from="741044613#0" to="-5078046#2" /><flow id="flow_76" begin="0" end="28000" departLane="best" departPos="random" departSpeed="max" period="2.40"   from="739896351" to="-27795219#0" /><flow id="flow_77" begin="0" end="28000" departLane="best" departPos="random" departSpeed="max" period="2.40"   from="809129465#0" to="-23418444" /><flow id="flow_78" begin="0" end="28000" departLane="best" departPos="random" departSpeed="max" period="2.40"   from="-4268194#1" to="429457301#1" /><flow id="flow_79" begin="0" end="28000" departLane="best" departPos="random" departSpeed="max" period="2.40"   from="-27795225" to="-24648917#1" /><flow id="flow_80" begin="0" end="28000" departLane="best" departPos="random" departSpeed="max" period="2.40"   from="-30906122#1" to="-5077438#3" /><flow id="flow_81" begin="0" end="28000" departLane="best" departPos="random" departSpeed="max" period="2.40"   from="24646274#7" to="-5105232#0" /><flow id="flow_82" begin="0" end="28000" departLane="best" departPos="random" departSpeed="max" period="2.40"   from="740541604" to="23418442#2" /><flow id="flow_83" begin="0" end="28000" departLane="best" departPos="random" departSpeed="max" period="2.40"   from="809058636" to="23310756#0" /><flow id="flow_84" begin="0" end="28000" departLane="best" departPos="random" departSpeed="max" period="2.40"   from="27795223#5" to="-230883178#0" /><flow id="flow_85" begin="0" end="28000" departLane="best" departPos="random" departSpeed="max" period="2.40"   from="252231752#0" to="-741115627#3" /><flow id="flow_86" begin="0" end="28000" departLane="best" departPos="random" departSpeed="max" period="2.40"   from="5078046#0" to="27795209#2" /><flow id="flow_87" begin="0" end="28000" departLane="best" departPos="random" departSpeed="max" period="2.40"   from="-27795200" to="-230883220#0" /><flow id="flow_89" begin="0" end="28000" departLane="best" departPos="random" departSpeed="max" period="2.40"   from="-27795177#3" to="-741951492#2" /><flow id="flow_91" begin="0" end="28000" departLane="best" departPos="random" departSpeed="max" period="2.40"   from="-22498510#4" to="22498512#2" /><flow id="flow_92" begin="0" end="28000" departLane="best" departPos="random" departSpeed="max" period="2.40"   from="827800868#0" to="739610625#1" /><flow id="flow_94" begin="0" end="28000" departLane="best" departPos="random" departSpeed="max" period="2.40"   from="-88362650#0" to="-827800868#0" /><flow id="flow_95" begin="0" end="28000" departLane="best" departPos="random" departSpeed="max" period="2.40"   from="88362650#2" to="27795209#5" /><flow id="flow_96" begin="0" end="28000" departLane="best" departPos="random" departSpeed="max" period="2.40"   from="24648925#2" to="252231750" /><flow id="flow_97" begin="0" end="28000" departLane="best" departPos="random" departSpeed="max" period="2.40"   from="911650625" to="745392432" /><flow id="flow_98" begin="0" end="28000" departLane="best" departPos="random" departSpeed="max" period="2.40"   from="738669699" to="23426836" /><flow id="flow_99" begin="0" end="28000" departLane="best" departPos="random" departSpeed="max" period="2.40"   from="24648917#0" to="-98853906#3" /><flow id="flow_100" begin="0" end="28000" departLane="best" departPos="random" departSpeed="max" period="2.40"   from="5077469#1" to="429657186#1" /><flow id="flow_101" begin="0" end="28000" departLane="best" departPos="random" departSpeed="max" period="2.40"   from="23418443" to="27795178" /><flow id="flow_102" begin="0" end="28000" departLane="best" departPos="random" departSpeed="max" period="2.40"   from="230883198#0" to="88362649#0" /><flow id="flow_103" begin="0" end="28000" departLane="best" departPos="random" departSpeed="max" period="2.40"   from="-230883197#1" to="30906146#4" /><flow id="flow_104" begin="0" end="28000" departLane="best" departPos="random" departSpeed="max" period="2.40"   from="28502990" to="741041387#0" /><flow id="flow_105" begin="0" end="28000" departLane="best" departPos="random" departSpeed="max" period="2.40"   from="5088169" to="-705551636" /><flow id="flow_107" begin="0" end="28000" departLane="best" departPos="random" departSpeed="max" period="2.40"   from="740542374#1" to="27795223#3" /><flow id="flow_108" begin="0" end="28000" departLane="best" departPos="random" departSpeed="max" period="2.40"   from="230883190#7" to="-5078135#5" /><flow id="flow_109" begin="0" end="28000" departLane="best" departPos="random" departSpeed="max" period="2.40"   from="5130793#4" to="741951492#1" /><flow id="flow_112" begin="0" end="28000" departLane="best" departPos="random" departSpeed="max" period="2.40"   from="-666005684#3" to="5077517#0" /><flow id="flow_113" begin="0" end="28000" departLane="best" departPos="random" departSpeed="max" period="2.40"   from="24648917#1" to="88362650#1" /><flow id="flow_115" begin="0" end="28000" departLane="best" departPos="random" departSpeed="max" period="2.40"   from="24646280#2" to="230883190#9" /><flow id="flow_117" begin="0" end="28000" departLane="best" departPos="random" departSpeed="max" period="2.40"   from="705507621#0" to="742235760" /><flow id="flow_118" begin="0" end="28000" departLane="best" departPos="random" departSpeed="max" period="2.40"   from="809129456#0" to="-741115627#4" /><flow id="flow_119" begin="0" end="28000" departLane="best" departPos="random" departSpeed="max" period="2.40"   from="741090360#0" to="-24651585#3" /><flow id="flow_120" begin="0" end="28000" departLane="best" departPos="random" departSpeed="max" period="2.40"   from="20795244#1" to="-23541047#7" /><flow id="flow_122" begin="0" end="28000" departLane="best" departPos="random" departSpeed="max" period="2.40"   from="429400164" to="24651582#1" /><flow id="flow_123" begin="0" end="28000" departLane="best" departPos="random" departSpeed="max" period="2.40"   from="739656597#0" to="230883190#9" /><flow id="flow_124" begin="0" end="28000" departLane="best" departPos="random" departSpeed="max" period="2.40"   from="5078289#0" to="-5078046#2" /><flow id="flow_125" begin="0" end="28000" departLane="best" departPos="random" departSpeed="max" period="2.40"   from="253392525#0" to="-230883197#4" /><flow id="flow_126" begin="0" end="28000" departLane="best" departPos="random" departSpeed="max" period="2.40"   from="741127120#0" to="-1223450449" /><flow id="flow_127" begin="0" end="28000" departLane="best" departPos="random" departSpeed="max" period="2.40"   from="-24648920#4" to="-5078135#0" /><flow id="flow_128" begin="0" end="28000" departLane="best" departPos="random" departSpeed="max" period="2.40"   from="-17666825" to="5087934#1" /><flow id="flow_129" begin="0" end="28000" departLane="best" departPos="random" departSpeed="max" period="2.40"   from="5077438#3" to="24646274#8" /><flow id="flow_130" begin="0" end="28000" departLane="best" departPos="random" departSpeed="max" period="2.40"   from="23418445" to="809129464" /><flow id="flow_131" begin="0" end="28000" departLane="best" departPos="random" departSpeed="max" period="2.40"   from="5078178#1" to="740543101#1" /><flow id="flow_134" begin="0" end="28000" departLane="best" departPos="random" departSpeed="max" period="2.40"   from="-5078292#1" to="30906146#6" /><flow id="flow_137" begin="0" end="28000" departLane="best" departPos="random" departSpeed="max" period="2.40"   from="794144005" to="-230883197#2" /><flow id="flow_138" begin="0" end="28000" departLane="best" departPos="random" departSpeed="max" period="2.40"   from="-23541047#14" to="5077438#2" /><flow id="flow_139" begin="0" end="28000" departLane="best" departPos="random" departSpeed="max" period="2.40"   from="-986879564" to="397864237" /><flow id="flow_141" begin="0" end="28000" departLane="best" departPos="random" departSpeed="max" period="2.40"   from="7975894#1" to="738672282" /><flow id="flow_145" begin="0" end="28000" departLane="best" departPos="random" departSpeed="max" period="2.40"   from="22376172#3" to="-5130793#5" /><flow id="flow_146" begin="0" end="28000" departLane="best" departPos="random" departSpeed="max" period="2.40"   from="15801640#1" to="27795194#1" /><flow id="flow_147" begin="0" end="28000" departLane="best" departPos="random" departSpeed="max" period="2.40"   from="-739627862" to="-388915800#1" /><flow id="flow_148" begin="0" end="28000" departLane="best" departPos="random" departSpeed="max" period="2.40"   from="-5078069" to="-809410642" /><flow id="flow_149" begin="0" end="28000" departLane="best" departPos="random" departSpeed="max" period="2.40"   from="5077469#4" to="-27795209#6" /><flow id="flow_151" begin="0" end="28000" departLane="best" departPos="random" departSpeed="max" period="2.40"   from="753420999" to="740541604" /><flow id="flow_153" begin="0" end="28000" departLane="best" departPos="random" departSpeed="max" period="2.40"   from="739610627#1" to="-5078046#2" /><flow id="flow_154" begin="0" end="28000" departLane="best" departPos="random" departSpeed="max" period="2.40"   from="23429616#1" to="742226154" /><flow id="flow_155" begin="0" end="28000" departLane="best" departPos="random" departSpeed="max" period="2.40"   from="-30906146#11" to="27795200" /><flow id="flow_157" begin="0" end="28000" departLane="best" departPos="random" departSpeed="max" period="2.40"   from="23426839#0" to="-745392432" /><flow id="flow_158" begin="0" end="28000" departLane="best" departPos="random" departSpeed="max" period="2.40"   from="738359305#2" to="-230883223" /><flow id="flow_159" begin="0" end="28000" departLane="best" departPos="random" departSpeed="max" period="2.40"   from="-230883190#4" to="-24583620#0" /><flow id="flow_160" begin="0" end="28000" departLane="best" departPos="random" departSpeed="max" period="2.40"   from="150995446#0" to="-5130793#5" /><flow id="flow_161" begin="0" end="28000" departLane="best" departPos="random" departSpeed="max" period="2.40"   from="-23541047#1" to="429321784#1" /><flow id="flow_162" begin="0" end="28000" departLane="best" departPos="random" departSpeed="max" period="2.40"   from="-88362650#3" to="88362648#0" /><flow id="flow_163" begin="0" end="28000" departLane="best" departPos="random" departSpeed="max" period="2.40"   from="-230883219" to="739659722" /><flow id="flow_164" begin="0" end="28000" departLane="best" departPos="random" departSpeed="max" period="2.40"   from="5078132#3" to="739610624#2" /><flow id="flow_165" begin="0" end="28000" departLane="best" departPos="random" departSpeed="max" period="2.40"   from="-809410640#1" to="5078068#2" /><flow id="flow_166" begin="0" end="28000" departLane="best" departPos="random" departSpeed="max" period="2.40"   from="150995458#3" to="-27795184#0" /><flow id="flow_168" begin="0" end="28000" departLane="best" departPos="random" departSpeed="max" period="2.40"   from="-5078043#4" to="37664790#1" /><flow id="flow_169" begin="0" end="28000" departLane="best" departPos="random" departSpeed="max" period="2.40"   from="739627863#1" to="739907574" /><flow id="flow_172" begin="0" end="28000" departLane="best" departPos="random" departSpeed="max" period="2.40"   from="7975895#1" to="739627862" /><flow id="flow_173" begin="0" end="28000" departLane="best" departPos="random" departSpeed="max" period="2.40"   from="-5130793#3" to="738675554#1" /><flow id="flow_174" begin="0" end="28000" departLane="best" departPos="random" departSpeed="max" period="2.40"   from="429657175" to="230883190#0" /><flow id="flow_175" begin="0" end="28000" departLane="best" departPos="random" departSpeed="max" period="2.40"   from="-230883220#1" to="-5078168#0" /><flow id="flow_176" begin="0" end="28000" departLane="best" departPos="random" departSpeed="max" period="2.40"   from="-5130793#5" to="-741044611#1" /><flow id="flow_178" begin="0" end="28000" departLane="best" departPos="random" departSpeed="max" period="2.40"   from="741945246#1" to="27795189#1" /><flow id="flow_179" begin="0" end="28000" departLane="best" departPos="random" departSpeed="max" period="2.40"   from="23541047#3" to="-5078046#0" /><flow id="flow_180" begin="0" end="28000" departLane="best" departPos="random" departSpeed="max" period="2.40"   from="22376172#2" to="27795219#0" /><flow id="flow_181" begin="0" end="28000" departLane="best" departPos="random" departSpeed="max" period="2.40"   from="88608399#0" to="-230883197#3" /><flow id="flow_182" begin="0" end="28000" departLane="best" departPos="random" departSpeed="max" period="2.40"   from="5078292#1" to="-98853906#3" /><flow id="flow_183" begin="0" end="28000" departLane="best" departPos="random" departSpeed="max" period="2.40"   from="24648920#2" to="666005684#1" /><flow id="flow_184" begin="0" end="28000" departLane="best" departPos="random" departSpeed="max" period="2.40"   from="5078135#5" to="230883197#0" /><flow id="flow_186" begin="0" end="28000" departLane="best" departPos="random" departSpeed="max" period="2.40"   from="1359646087" to="741115627#5" /><flow id="flow_187" begin="0" end="28000" departLane="best" departPos="random" departSpeed="max" period="2.40"   from="27795189#1" to="720173687#0" /><flow id="flow_188" begin="0" end="28000" departLane="best" departPos="random" departSpeed="max" period="2.40"   from="394991539#1" to="-741951492#0" /><flow id="flow_190" begin="0" end="28000" departLane="best" departPos="random" departSpeed="max" period="2.40"   from="30906146#11" to="150995458#3" /><flow id="flow_191" begin="0" end="28000" departLane="best" departPos="random" departSpeed="max" period="2.40"   from="27795198#0" to="5078180#0" /><flow id="flow_192" begin="0" end="28000" departLane="best" departPos="random" departSpeed="max" period="2.40"   from="-230883196" to="5078168#3" /><flow id="flow_193" begin="0" end="28000" departLane="best" departPos="random" departSpeed="max" period="2.40"   from="429924386#0" to="23426839#0" /><flow id="flow_194" begin="0" end="28000" departLane="best" departPos="random" departSpeed="max" period="2.40"   from="739897706" to="230883190#6" /><flow id="flow_195" begin="0" end="28000" departLane="best" departPos="random" departSpeed="max" period="2.40"   from="429321784#1" to="739896351" /><flow id="flow_196" begin="0" end="28000" departLane="best" departPos="random" departSpeed="max" period="2.40"   from="24648919#0" to="741115628#0" /><flow id="flow_197" begin="0" end="28000" departLane="best" departPos="random" departSpeed="max" period="2.40"   from="-30906146#5" to="-26408915#2" /><flow id="flow_198" begin="0" end="28000" departLane="best" departPos="random" departSpeed="max" period="2.40"   from="24651583" to="15801624#1" /><flow id="flow_199" begin="0" end="28000" departLane="best" departPos="random" departSpeed="max" period="2.40"   from="-741115627#4" to="E9" /><flow id="flow_200" begin="0" end="28000" departLane="best" departPos="random" departSpeed="max" period="2.40"   from="88362650#1" to="37664793#0" /><flow id="flow_202" begin="0" end="28000" departLane="best" departPos="random" departSpeed="max" period="2.40"   from="-809095858" to="429657195" /><flow id="flow_203" begin="0" end="28000" departLane="best" departPos="random" departSpeed="max" period="2.40"   from="-739656593" to="24648919#1" /><flow id="flow_204" begin="0" end="28000" departLane="best" departPos="random" departSpeed="max" period="2.40"   from="388915800#0" to="429838641" /><flow id="flow_208" begin="0" end="28000" departLane="best" departPos="random" departSpeed="max" period="2.40"   from="-5130797#0" to="15801640#1" /><flow id="flow_211" begin="0" end="28000" departLane="best" departPos="random" departSpeed="max" period="2.40"   from="23418440#2" to="741096486" /><flow id="flow_212" begin="0" end="28000" departLane="best" departPos="random" departSpeed="max" period="2.40"   from="23418446" to="5078068#0" /><flow id="flow_213" begin="0" end="28000" departLane="best" departPos="random" departSpeed="max" period="2.40"   from="88608399#3" to="17666829#0" /><flow id="flow_214" begin="0" end="28000" departLane="best" departPos="random" departSpeed="max" period="2.40"   from="-24651585#2" to="-827800868#0" /><flow id="flow_215" begin="0" end="28000" departLane="best" departPos="random" departSpeed="max" period="2.40"   from="89599142#0" to="5077438#3" /><flow id="flow_216" begin="0" end="28000" departLane="best" departPos="random" departSpeed="max" period="2.40"   from="230883217#1" to="88362646" /><flow id="flow_217" begin="0" end="28000" departLane="best" departPos="random" departSpeed="max" period="2.40"   from="429321783#0" to="-22376172#4" /><flow id="flow_220" begin="0" end="28000" departLane="best" departPos="random" departSpeed="max" period="2.40"   from="-24651585#3" to="-38028104#1" /><flow id="flow_221" begin="0" end="28000" departLane="best" departPos="random" departSpeed="max" period="2.40"   from="429321778#5" to="15801638#0" /><flow id="flow_222" begin="0" end="28000" departLane="best" departPos="random" departSpeed="max" period="2.40"   from="27795209#4" to="27702189#7" /><flow id="flow_224" begin="0" end="28000" departLane="best" departPos="random" departSpeed="max" period="2.40"   from="5078132#3" to="-150995420#0" /><flow id="flow_228" begin="0" end="28000" departLane="best" departPos="random" departSpeed="max" period="2.40"   from="397864235#0" to="-27795222#0" /><flow id="flow_230" begin="0" end="28000" departLane="best" departPos="random" departSpeed="max" period="2.40"   from="388915796#1" to="429463895" /><flow id="flow_231" begin="0" end="28000" departLane="best" departPos="random" departSpeed="max" period="2.40"   from="-24646274#8" to="-741951492#0" /><flow id="flow_232" begin="0" end="28000" departLane="best" departPos="random" departSpeed="max" period="2.40"   from="742235761" to="-705562065#0" /><flow id="flow_235" begin="0" end="28000" departLane="best" departPos="random" departSpeed="max" period="2.40"   from="252231752#1" to="-230883190#7" /><flow id="flow_236" begin="0" end="28000" departLane="best" departPos="random" departSpeed="max" period="2.40"   from="-809129460#0" to="24583624" /><flow id="flow_237" begin="0" end="28000" departLane="best" departPos="random" departSpeed="max" period="2.40"   from="-315425949" to="27702189#2" /><flow id="flow_238" begin="0" end="28000" departLane="best" departPos="random" departSpeed="max" period="2.40"   from="23429616#1" to="540231512" /><flow id="flow_240" begin="0" end="28000" departLane="best" departPos="random" departSpeed="max" period="2.40"   from="-88362645" to="-230883193" /><flow id="flow_242" begin="0" end="28000" departLane="best" departPos="random" departSpeed="max" period="2.40"   from="-220026399#0" to="-739656593" /><flow id="flow_243" begin="0" end="28000" departLane="best" departPos="random" departSpeed="max" period="2.40"   from="5130798" to="22376172#3" /><flow id="flow_244" begin="0" end="28000" departLane="best" departPos="random" departSpeed="max" period="2.40"   from="-37585474#0" to="-23556528#1" /><flow id="flow_245" begin="0" end="28000" departLane="best" departPos="random" departSpeed="max" period="2.40"   from="27795184#0" to="429657179#1" /><flow id="flow_246" begin="0" end="28000" departLane="best" departPos="random" departSpeed="max" period="2.40"   from="5077438#1" to="20335075#0" /><flow id="flow_247" begin="0" end="28000" departLane="best" departPos="random" departSpeed="max" period="2.40"   from="23418445" to="-666005684#2" /><flow id="flow_248" begin="0" end="28000" departLane="best" departPos="random" departSpeed="max" period="2.40"   from="388915800#2" to="-429907885#0" /><flow id="flow_249" begin="0" end="28000" departLane="best" departPos="random" departSpeed="max" period="2.40"   from="809129465#0" to="741048742" /><flow id="flow_250" begin="0" end="28000" departLane="best" departPos="random" departSpeed="max" period="2.40"   from="150995458#3" to="5077835#0" /><flow id="flow_251" begin="0" end="28000" departLane="best" departPos="random" departSpeed="max" period="2.40"   from="-5077469#5" to="-37585474#0" /><flow id="flow_252" begin="0" end="28000" departLane="best" departPos="random" departSpeed="max" period="2.40"   from="429838644#1" to="-27795226" /><flow id="flow_253" begin="0" end="28000" departLane="best" departPos="random" departSpeed="max" period="2.40"   from="809058633" to="8787737#0" /><flow id="flow_254" begin="0" end="28000" departLane="best" departPos="random" departSpeed="max" period="2.40"   from="E9" to="23310756#1" /><flow id="flow_255" begin="0" end="28000"