<?xml version='1.0' encoding='utf-8'?>
<routes><vType id="car" accel="1.0" decel="4.5" sigma="0.5" length="5" minGap="2.5" maxSpeed="70" /><flow id="flow_0" type="car" begin="0" end="28000" number="1" from="-5078292#1" to="-429924375#0" departLane="best" departSpeed="max" departPos="random" /><flow id="flow_1" type="car" begin="0" end="28000" number="1" from="-30906146#2" to="388915798#1" departLane="best" departSpeed="max" departPos="random" /><flow id="flow_2" type="car" begin="0" end="28000" number="1" from="5130793#5" to="429627480#1" departLane="best" departSpeed="max" departPos="random" /><flow id="flow_3" type="car" begin="0" end="28000" number="1" from="809410646" to="-88362649#1" departLane="best" departSpeed="max" departPos="random" /><flow id="flow_4" type="car" begin="0" end="28000" number="1" from="-23541047#14" to="739897707#0" departLane="best" departSpeed="max" departPos="random" /><flow id="flow_5" type="car" begin="0" end="28000" number="1" from="-429783129" to="-666005684#2" departLane="best" departSpeed="max" departPos="random" /><flow id="flow_6" type="car" begin="0" end="28000" number="1" from="-745392432" to="-5078292#2" departLane="best" departSpeed="max" departPos="random" /><flow id="flow_7" type="car" begin="0" end="28000" number="1" from="15801625#1" to="E1" departLane="best" departSpeed="max" departPos="random" /><flow id="flow_8" type="car" begin="0" end="28000" number="1" from="429783158#0" to="429321790#1" departLane="best" departSpeed="max" departPos="random" /><flow id="flow_9" type="car" begin="0" end="28000" number="1" from="5078043#2" to="24648920#5" departLane="best" departSpeed="max" departPos="random" /><flow id="flow_10" type="car" begin="0" end="28000" number="1" from="740747526#0" to="809129465#1" departLane="best" departSpeed="max" departPos="random" /><flow id="flow_11" type="car" begin="0" end="28000" number="1" from="23310756#0" to="-230883198#0" departLane="best" departSpeed="max" departPos="random" /><flow id="flow_12" type="car" begin="0" end="28000" number="1" from="230883220#0" to="24651586#1" departLane="best" departSpeed="max" departPos="random" /><flow id="flow_13" type="car" begin="0" end="28000" number="1" from="-429400168#1" to="-88362650#1" departLane="best" departSpeed="max" departPos="random" /><flow id="flow_14" type="car" begin="0" end="28000" number="1" from="-5077464#1" to="4268197" departLane="best" departSpeed="max" departPos="random" /><flow id="flow_15" type="car" begin="0" end="28000" number="1" from="17666817#2" to="-88362650#2" departLane="best" departSpeed="max" departPos="random" /><flow id="flow_16" type="car" begin="0" end="28000" number="1" from="E9" to="739610625#1" departLane="best" departSpeed="max" departPos="random" /><flow id="flow_17" type="car" begin="0" end="28000" number="1" from="23310755#1" to="-394991539#1" departLane="best" departSpeed="max" departPos="random" /><flow id="flow_18" type="car" begin="0" end="28000" number="1" from="150995465#1" to="88650498" departLane="best" departSpeed="max" departPos="random" /><flow id="flow_19" type="car" begin="0" end="28000" number="1" from="-705507621#0" to="88362648#1" departLane="best" departSpeed="max" departPos="random" /><flow id="flow_20" type="car" begin="0" end="28000" number="2" from="741115621#1" to="-5078069" departLane="best" departSpeed="max" departPos="random" /><flow id="flow_21" type="car" begin="0" end="28000" number="1" from="230883190#2" to="E4" departLane="best" departSpeed="max" departPos="random" /><flow id="flow_22" type="car" begin="0" end="28000" number="1" from="-38028104#1" to="-5078288" departLane="best" departSpeed="max" departPos="random" /><flow id="flow_23" type="car" begin="0" end="28000" number="1" from="738669702" to="429657179#1" departLane="best" departSpeed="max" departPos="random" /><flow id="flow_24" type="car" begin="0" end="28000" number="1" from="64432381" to="-741041387#1" departLane="best" departSpeed="max" departPos="random" /><flow id="flow_25" type="car" begin="0" end="28000" number="1" from="-24646274#5" to="-24583621" departLane="best" departSpeed="max" departPos="random" /><flow id="flow_26" type="car" begin="0" end="28000" number="1" from="220026399#0" to="-5130790#1" departLane="best" departSpeed="max" departPos="random" /><flow id="flow_27" type="car" begin="0" end="28000" number="1" from="5078132#3" to="37585474#1" departLane="best" departSpeed="max" departPos="random" /><flow id="flow_28" type="car" begin="0" end="28000" number="1" from="-230883211#1" to="741115621#0" departLane="best" departSpeed="max" departPos="random" /><flow id="flow_29" type="car" begin="0" end="28000" number="2" from="-24648920#1" to="-741951493" departLane="best" departSpeed="max" departPos="random" /><flow id="flow_30" type="car" begin="0" end="28000" number="1" from="5078168#2" to="741115622" departLane="best" departSpeed="max" departPos="random" /><flow id="flow_31" type="car" begin="0" end="28000" number="1" from="7975895#0" to="740542374#0" departLane="best" departSpeed="max" departPos="random" /><flow id="flow_32" type="car" begin="0" end="28000" number="1" from="4950814" to="-810553261" departLane="best" departSpeed="max" departPos="random" /><flow id="flow_33" type="car" begin="0" end="28000" number="1" from="740543101#1" to="740541596" departLane="best" departSpeed="max" departPos="random" /><flow id="flow_34" type="car" begin="0" end="28000" number="1" from="-27795225" to="-809410642" departLane="best" departSpeed="max" departPos="random" /><flow id="flow_35" type="car" begin="0" end="28000" number="1" from="7975891#2" to="24648920#3" departLane="best" departSpeed="max" departPos="random" /><flow id="flow_36" type="car" begin="0" end="28000" number="1" from="394991548#1" to="-809441426#0" departLane="best" departSpeed="max" departPos="random" /><flow id="flow_37" type="car" begin="0" end="28000" number="1" from="23541047#3" to="30906146#6" departLane="best" departSpeed="max" departPos="random" /><flow id="flow_38" type="car" begin="0" end="28000" number="1" from="-5078042#0" to="23310753#1" departLane="best" departSpeed="max" departPos="random" /><flow id="flow_39" type="car" begin="0" end="28000" number="1" from="20795244#1" to="30906146#2" departLane="best" departSpeed="max" departPos="random" /><flow id="flow_40" type="car" begin="0" end="28000" number="1" from="5077523#1" to="5078132#5" departLane="best" departSpeed="max" departPos="random" /><flow id="flow_41" type="car" begin="0" end="28000" number="1" from="-5078043#3" to="739897707#1" departLane="best" departSpeed="max" departPos="random" /><flow id="flow_42" type="car" begin="0" end="28000" number="1" from="-5130793#1" to="-5087934#1" departLane="best" departSpeed="max" departPos="random" /><flow id="flow_43" type="car" begin="0" end="28000" number="1" from="-429924375#1" to="429463896#1" departLane="best" departSpeed="max" departPos="random" /><flow id="flow_44" type="car" begin="0" end="28000" number="1" from="19992821" to="24648925#3" departLane="best" departSpeed="max" departPos="random" /><flow id="flow_45" type="car" begin="0" end="28000" number="1" from="-88608399#3" to="5077823#2" departLane="best" departSpeed="max" departPos="random" /><flow id="flow_46" type="car" begin="0" end="28000" number="1" from="-809404857" to="429321784#2" departLane="best" departSpeed="max" departPos="random" /><flow id="flow_47" type="car" begin="0" end="28000" number="1" from="230883197#3" to="-24648920#4" departLane="best" departSpeed="max" departPos="random" /><flow id="flow_48" type="car" begin="0" end="28000" number="1" from="30906146#7" to="-24651585#3" departLane="best" departSpeed="max" departPos="random" /><flow id="flow_49" type="car" begin="0" end="28000" number="1" from="150995465#1" to="-388915800#2" departLane="best" departSpeed="max" departPos="random" /><flow id="flow_50" type="car" begin="0" end="28000" number="1" from="666005684#1" to="8787737#3" departLane="best" departSpeed="max" departPos="random" /><flow id="flow_51" type="car" begin="0" end="28000" number="1" from="429457297#0" to="30906146#1" departLane="best" departSpeed="max" departPos="random" /><flow id="flow_52" type="car" begin="0" end="28000" number="1" from="5078132#5" to="739907573" departLane="best" departSpeed="max" departPos="random" /><flow id="flow_53" type="car" begin="0" end="28000" number="1" from="88650489#0" to="5078247#1" departLane="best" departSpeed="max" departPos="random" /><flow id="flow_54" type="car" begin="0" end="28000" number="1" from="810541428" to="315425948" departLane="best" departSpeed="max" departPos="random" /><flow id="flow_55" type="car" begin="0" end="28000" number="1" from="741044613#0" to="-5078046#2" departLane="best" departSpeed="max" departPos="random" /><flow id="flow_56" type="car" begin="0" end="28000" number="1" from="739896351" to="-27795219#0" departLane="best" departSpeed="max" departPos="random" /><flow id="flow_57" type="car" begin="0" end="28000" number="1" from="809129465#0" to="-23418444" departLane="best" departSpeed="max" departPos="random" /><flow id="flow_58" type="car" begin="0" end="28000" number="1" from="-4268194#1" to="429457301#1" departLane="best" departSpeed="max" departPos="random" /><flow id="flow_59" type="car" begin="0" end="28000" number="1" from="-27795225" to="-24648917#1" departLane="best" departSpeed="max" departPos="random" /><flow id="flow_60" type="car" begin="0" end="28000" number="1" from="-30906122#1" to="-5077438#3" departLane="best" departSpeed="max" departPos="random" /><flow id="flow_61" type="car" begin="0" end="28000" number="1" from="24646274#7" to="-5105232#0" departLane="best" departSpeed="max" departPos="random" /><flow id="flow_62" type="car" begin="0" end="28000" number="1" from="740541604" to="23418442#2" departLane="best" departSpeed="max" departPos="random" /><flow id="flow_63" type="car" begin="0" end="28000" number="1" from="809058636" to="23310756#0" departLane="best" departSpeed="max" departPos="random" /><flow id="flow_64" type="car" begin="0" end="28000" number="1" from="27795223#5" to="-230883178#0" departLane="best" departSpeed="max" departPos="random" /><flow id="flow_65" type="car" begin="0" end="28000" number="1" from="252231752#0" to="-741115627#3" departLane="best" departSpeed="max" departPos="random" /><flow id="flow_66" type="car" begin="0" end="28000" number="1" from="5078046#0" to="27795209#2" departLane="best" departSpeed="max" departPos="random" /><flow id="flow_67" type="car" begin="0" end="28000" number="1" from="-27795200" to="-230883220#0" departLane="best" departSpeed="max" departPos="random" /><flow id="flow_68" type="car" begin="0" end="28000" number="1" from="-27795177#3" to="-741951492#2" departLane="best" departSpeed="max" departPos="random" /><flow id="flow_69" type="car" begin="0" end="28000" number="1" from="-22498510#4" to="22498512#2" departLane="best" departSpeed="max" departPos="random" /><flow id="flow_70" type="car" begin="0" end="28000" number="1" from="827800868#0" to="739610625#1" departLane="best" departSpeed="max" departPos="random" /><flow id="flow_71" type="car" begin="0" end="28000" number="1" from="-88362650#0" to="-827800868#0" departLane="best" departSpeed="max" departPos="random" /><flow id="flow_72" type="car" begin="0" end="28000" number="1" from="88362650#2" to="27795209#5" departLane="best" departSpeed="max" departPos="random" /><flow id="flow_73" type="car" begin="0" end="28000" number="1" from="24648925#2" to="252231750" departLane="best" departSpeed="max" departPos="random" /><flow id="flow_74" type="car" begin="0" end="28000" number="1" from="911650625" to="745392432" departLane="best" departSpeed="max" departPos="random" /><flow id="flow_75" type="car" begin="0" end="28000" number="1" from="738669699" to="23426836" departLane="best" departSpeed="max" departPos="random" /><flow id="flow_76" type="car" begin="0" end="28000" number="1" from="24648917#0" to="-98853906#3" departLane="best" departSpeed="max" departPos="random" /><flow id="flow_77" type="car" begin="0" end="28000" number="1" from="5077469#1" to="429657186#1" departLane="best" departSpeed="max" departPos="random" /><flow id="flow_78" type="car" begin="0" end="28000" number="1" from="23418443" to="27795178" departLane="best" departSpeed="max" departPos="random" /><flow id="flow_79" type="car" begin="0" end="28000" number="1" from="230883198#0" to="88362649#0" departLane="best" departSpeed="max" departPos="random" /><flow id="flow_80" type="car" begin="0" end="28000" number="1" from="-230883197#1" to="30906146#4" departLane="best" departSpeed="max" departPos="random" /><flow id="flow_81" type="car" begin="0" end="28000" number="1" from="28502990" to="741041387#0" departLane="best" departSpeed="max" departPos="random" /><flow id="flow_82" type="car" begin="0" end="28000" number="1" from="5088169" to="-705551636" departLane="best" departSpeed="max" departPos="random" /><flow id="flow_83" type="car" begin="0" end="28000" number="1" from="740542374#1" to="27795223#3" departLane="best" departSpeed="max" departPos="random" /><flow id="flow_84" type="car" begin="0" end="28000" number="1" from="230883190#7" to="-5078135#5" departLane="best" departSpeed="max" departPos="random" /><flow id="flow_85" type="car" begin="0" end="28000" number="1" from="5130793#4" to="741951492#1" departLane="best" departSpeed="max" departPos="random" /><flow id="flow_86" type="car" begin="0" end="28000" number="1" from="-666005684#3" to="5077517#0" departLane="best" departSpeed="max" departPos="random" /><flow id="flow_87" type="car" begin="0" end="28000" number="1" from="24648917#1" to="88362650#1" departLane="best" departSpeed="max" departPos="random" /><flow id="flow_88" type="car" begin="0" end="28000" number="1" from="24646280#2" to="230883190#9" departLane="best" departSpeed="max" departPos="random" /><flow id="flow_89" type="car" begin="0" end="28000" number="1" from="705507621#0" to="742235760" departLane="best" departSpeed="max" departPos="random" /><flow id="flow_90" type="car" begin="0" end="28000" number="1" from="809129456#0" to="-741115627#4" departLane="best" departSpeed="max" departPos="random" /><flow id="flow_91" type="car" begin="0" end="28000" number="1" from="741090360#0" to="-24651585#3" departLane="best" departSpeed="max" departPos="random" /><flow id="flow_92" type="car" begin="0" end="28000" number="1" from="20795244#1" to="-23541047#7" departLane="best" departSpeed="max" departPos="random" /><flow id="flow_93" type="car" begin="0" end="28000" number="1" from="429400164" to="24651582#1" departLane="best" departSpeed="max" departPos="random" /><flow id="flow_94" type="car" begin="0" end="28000" number="1" from="739656597#0" to="230883190#9" departLane="best" departSpeed="max" departPos="random" /><flow id="flow_95" type="car" begin="0" end="28000" number="1" from="5078289#0" to="-5078046#2" departLane="best" departSpeed="max" departPos="random" /><flow id="flow_96" type="car" begin="0" end="28000" number="1" from="253392525#0" to="-230883197#4" departLane="best" departSpeed="max" departPos="random" /><flow id="flow_97" type="car" begin="0" end="28000" number="1" from="741127120#0" to="-1223450449" departLane="best" departSpeed="max" departPos="random" /><flow id="flow_98" type="car" begin="0" end="28000" number="1" from="-24648920#4" to="-5078135#0" departLane="best" departSpeed="max" departPos="random" /><flow id="flow_99" type="car" begin="0" end="28000" number="1" from="-17666825" to="5087934#1" departLane="best" departSpeed="max" departPos="random" /><flow id="flow_100" type="car" begin="0" end="28000" number="1" from="5077438#3" to="24646274#8" departLane="best" departSpeed="max" departPos="random" /><flow id="flow_101" type="car" begin="0" end="28000" number="1" from="23418445" to="809129464" departLane="best" departSpeed="max" departPos="random" /><flow id="flow_102" type="car" begin="0" end="28000" number="1" from="5078178#1" to="740543101#1" departLane="best" departSpeed="max" departPos="random" /><flow id="flow_103" type="car" begin="0" end="28000" number="1" from="-5078292#1" to="30906146#6" departLane="best" departSpeed="max" departPos="random" /><flow id="flow_104" type="car" begin="0" end="28000" number="1" from="794144005" to="-230883197#2" departLane="best" departSpeed="max" departPos="random" /><flow id="flow_105" type="car" begin="0" end="28000" number="1" from="-23541047#14" to="5077438#2" departLane="best" departSpeed="max" departPos="random" /><flow id="flow_106" type="car" begin="0" end="28000" number="1" from="-986879564" to="397864237" departLane="best" departSpeed="max" departPos="random" /><flow id="flow_107" type="car" begin="0" end="28000" number="1" from="7975894#1" to="738672282" departLane="best" departSpeed="max" departPos="random" /><flow id="flow_108" type="car" begin="0" end="28000" number="1" from="22376172#3" to="-5130793#5" departLane="best" departSpeed="max" departPos="random" /><flow id="flow_109" type="car" begin="0" end="28000" number="1" from="15801640#1" to="27795194#1" departLane="best" departSpeed="max" departPos="random" /><flow id="flow_110" type="car" begin="0" end="28000" number="1" from="-739627862" to="-388915800#1" departLane="best" departSpeed="max" departPos="random" /><flow id="flow_111" type="car" begin="0" end="28000" number="1" from="-5078069" to="-809410642" departLane="best" departSpeed="max" departPos="random" /><flow id="flow_112" type="car" begin="0" end="28000" number="1" from="5077469#4" to="-27795209#6" departLane="best" departSpeed="max" departPos="random" /><flow id="flow_113" type="car" begin="0" end="28000" number="1" from="753420999" to="740541604" departLane="best" departSpeed="max" departPos="random" /><flow id="flow_114" type="car" begin="0" end="28000" number="1" from="739610627#1" to="-5078046#2" departLane="best" departSpeed="max" departPos="random" /><flow id="flow_115" type="car" begin="0" end="28000" number="1" from="23429616#1" to="742226154" departLane="best" departSpeed="max" departPos="random" /><flow id="flow_116" type="car" begin="0" end="28000" number="1" from="-30906146#11" to="27795200" departLane="best" departSpeed="max" departPos="random" /><flow id="flow_117" type="car" begin="0" end="28000" number="1" from="23426839#0" to="-745392432" departLane="best" departSpeed="max" departPos="random" /><flow id="flow_118" type="car" begin="0" end="28000" number="1" from="738359305#2" to="-230883223" departLane="best" departSpeed="max" departPos="random" /><flow id="flow_119" type="car" begin="0" end="28000" number="1" from="-230883190#4" to="-24583620#0" departLane="best" departSpeed="max" departPos="random" /><flow id="flow_120" type="car" begin="0" end="28000" number="1" from="150995446#0" to="-5130793#5" departLane="best" departSpeed="max" departPos="random" /><flow id="flow_121" type="car" begin="0" end="28000" number="1" from="-23541047#1" to="429321784#1" departLane="best" departSpeed="max" departPos="random" /><flow id="flow_122" type="car" begin="0" end="28000" number="1" from="-88362650#3" to="88362648#0" departLane="best" departSpeed="max" departPos="random" /><flow id="flow_123" type="car" begin="0" end="28000" number="1" from="-230883219" to="739659722" departLane="best" departSpeed="max" departPos="random" /><flow id="flow_124" type="car" begin="0" end="28000" number="1" from="5078132#3" to="739610624#2" departLane="best" departSpeed="max" departPos="random" /><flow id="flow_125" type="car" begin="0" end="28000" number="1" from="-809410640#1" to="5078068#2" departLane="best" departSpeed="max" departPos="random" /><flow id="flow_126" type="car" begin="0" end="28000" number="1" from="150995458#3" to="-27795184#0" departLane="best" departSpeed="max" departPos="random" /><flow id="flow_127" type="car" begin="0" end="28000" number="1" from="-5078043#4" to="37664790#1" departLane="best" departSpeed="max" departPos="random" /><flow id="flow_128" type="car" begin="0" end="28000" number="1" from="739627863#1" to="739907574" departLane="best" departSpeed="max" departPos="random" /><flow id="flow_129" type="car" begin="0" end="28000" number="1" from="7975895#1" to="739627862" departLane="best" departSpeed="max" departPos="random" /><flow id="flow_130" type="car" begin="0" end="28000" number="1" from="-5130793#3" to="738675554#1" departLane="best" departSpeed="max" departPos="random" /><flow id="flow_131" type="car" begin="0" end="28000" number="1" from="429657175" to="230883190#0" departLane="best" departSpeed="max" departPos="random" /><flow id="flow_132" type="car" begin="0" end="28000" number="1" from="-230883220#1" to="-5078168#0" departLane="best" departSpeed="max" departPos="random" /><flow id="flow_133" type="car" begin="0" end="28000" number="1" from="-5130793#5" to="-741044611#1" departLane="best" departSpeed="max" departPos="random" /><flow id="flow_134" type="car" begin="0" end="28000" number="1" from="741945246#1" to="27795189#1" departLane="best" departSpeed="max" departPos="random" /><flow id="flow_135" type="car" begin="0" end="28000" number="1" from="23541047#3" to="-5078046#0" departLane="best" departSpeed="max" departPos="random" /><flow id="flow_136" type="car" begin="0" end="28000" number="1" from="22376172#2" to="27795219#0" departLane="best" departSpeed="max" departPos="random" /><flow id="flow_137" type="car" begin="0" end="28000" number="1" from="88608399#0" to="-230883197#3" departLane="best" departSpeed="max" departPos="random" /><flow id="flow_138" type="car" begin="0" end="28000" number="1" from="5078292#1" to="-98853906#3" departLane="best" departSpeed="max" departPos="random" /><flow id="flow_139" type="car" begin="0" end="28000" number="1" from="24648920#2" to="666005684#1" departLane="best" departSpeed="max" departPos="random" /><flow id="flow_140" type="car" begin="0" end="28000" number="1" from="5078135#5" to="230883197#0" departLane="best" departSpeed="max" departPos="random" /><flow id="flow_141" type="car" begin="0" end="28000" number="1" from="1359646087" to="741115627#5" departLane="best" departSpeed="max" departPos="random" /><flow id="flow_142" type="car" begin="0" end="28000" number="1" from="27795189#1" to="720173687#0" departLane="best" departSpeed="max" departPos="random" /><flow id="flow_143" type="car" begin="0" end="28000" number="1" from="394991539#1" to="-741951492#0" departLane="best" departSpeed="max" departPos="random" /><flow id="flow_144" type="car" begin="0" end="28000" number="1" from="30906146#11" to="150995458#3" departLane="best" departSpeed="max" departPos="random" /><flow id="flow_145" type="car" begin="0" end="28000" number="1" from="27795198#0" to="5078180#0" departLane="best" departSpeed="max" departPos="random" /><flow id="flow_146" type="car" begin="0" end="28000" number="1" from="-230883196" to="5078168#3" departLane="best" departSpeed="max" departPos="random" /><flow id="flow_147" type="car" begin="0" end="28000" number="1" from="429924386#0" to="23426839#0" departLane="best" departSpeed="max" departPos="random" /><flow id="flow_148" type="car" begin="0" end="28000" number="1" from="739897706" to="230883190#6" departLane="best" departSpeed="max" departPos="random" /><flow id="flow_149" type="car" begin="0" end="28000" number="1" from="429321784#1" to="739896351" departLane="best" departSpeed="max" departPos="random" /><flow id="flow_150" type="car" begin="0" end="28000" number="1" from="24648919#0" to="741115628#0" departLane="best" departSpeed="max" departPos="random" /><flow id="flow_151" type="car" begin="0" end="28000" number="1" from="-30906146#5" to="-26408915#2" departLane="best" departSpeed="max" departPos="random" /><flow id="flow_152" type="car" begin="0" end="28000" number="1" from="24651583" to="15801624#1" departLane="best" departSpeed="max" departPos="random" /><flow id="flow_153" type="car" begin="0" end="28000" number="1" from="-741115627#4" to="E9" departLane="best" departSpeed="max" departPos="random" /><flow id="flow_154" type="car" begin="0" end="28000" number="1" from="88362650#1" to="37664793#0" departLane="best" departSpeed="max" departPos="random" /><flow id="flow_155" type="car" begin="0" end="28000" number="1" from="-809095858" to="429657195" departLane="best" departSpeed="max" departPos="random" /><flow id="flow_156" type="car" begin="0" end="28000" number="1" from="-739656593" to="24648919#1" departLane="best" departSpeed="max" departPos="random" /><flow id="flow_157" type="car" begin="0" end="28000" number="1" from="388915800#0" to="429838641" departLane="best" departSpeed="max" departPos="random" /><flow id="flow_158" type="car" begin="0" end="28000" number="1" from="-5130797#0" to="15801640#1" departLane="best" departSpeed="max" departPos="random" /><flow id="flow_159" type="car" begin="0" end="28000" number="1" from="23418440#2" to="741096486" departLane="best" departSpeed="max" departPos="random" /><flow id="flow_160" type="car" begin="0" end="28000" number="1" from="23418446" to="5078068#0" departLane="best" departSpeed="max" departPos="random" /><flow id="flow_161" type="car" begin="0" end="28000" number="1" from="88608399#3" to="17666829#0" departLane="best" departSpeed="max" departPos="random" /><flow id="flow_162" type="car" begin="0" end="28000" number="1" from="-24651585#2" to="-827800868#0" departLane="best" departSpeed="max" departPos="random" /><flow id="flow_163" type="car" begin="0" end="28000" number="1" from="89599142#0" to="5077438#3" departLane="best" departSpeed="max" departPos="random" /><flow id="flow_164" type="car" begin="0" end="28000" number="1" from="230883217#1" to="88362646" departLane="best" departSpeed="max" departPos="random" /><flow id="flow_165" type="car" begin="0" end="28000" number="1" from="429321783#0" to="-22376172#4" departLane="best" departSpeed="max" departPos="random" /><flow id="flow_166" type="car" begin="0" end="28000" number="1" from="-24651585#3" to="-38028104#1" departLane="best" departSpeed="max" departPos="random" /><flow id="flow_167" type="car" begin="0" end="28000" number="1" from="429321778#5" to="15801638#0" departLane="best" departSpeed="max" departPos="random" /><flow id="flow_168" type="car" begin="0" end="28000" number="1" from="27795209#4" to="27702189#7" departLane="best" departSpeed="max" departPos="random" /><flow id="flow_169" type="car" begin="0" end="28000" number="1" from="5078132#3" to="-150995420#0" departLane="best" departSpeed="max" departPos="random" /><flow id="flow_170" type="car" begin="0" end="28000" number="1" from="397864235#0" to="-27795222#0" departLane="best" departSpeed="max" departPos="random" /><flow id="flow_171" type="car" begin="0" end="28000" number="1" from="388915796#1" to="429463895" departLane="best" departSpeed="max" departPos="random" /><flow id="flow_172" type="car" begin="0" end="28000" number="1" from="-24646274#8" to="-741951492#0" departLane="best" departSpeed="max" departPos="random" /><flow id="flow_173" type="car" begin="0" end="28000" number="1" from="742235761" to="-705562065#0" departLane="best" departSpeed="max" departPos="random" /><flow id="flow_174" type="car" begin="0" end="28000" number="1" from="252231752#1" to="-230883190#7" departLane="best" departSpeed="max" departPos="random" /><flow id="flow_175" type="car" begin="0" end="28000" number="1" from="-809129460#0" to="24583624" departLane="best" departSpeed="max" departPos="random" /><flow id="flow_176" type="car" begin="0" end="28000" number="1" from="-315425949" to="27702189#2" departLane="best" departSpeed="max" departPos="random" /><flow id="flow_177" type="car" begin="0" end="28000" number="1" from="23429616#1" to="540231512" departLane="best" departSpeed="max" departPos="random" /><flow id="flow_178" type="car" begin="0" end="28000" number="1" from="-88362645" to="-230883193" departLane="best" departSpeed="max" departPos="random" /><flow id="flow_179" type="car" begin="0" end="28000" number="1" from="-220026399#0" to="-739656593" departLane="best" departSpeed="max" departPos="random" /><flow id="flow_180" type="car" begin="0" end="28000" number="1" from="5130798" to="22376172#3" departLane="best" departSpeed="max" departPos="random" /><flow id="flow_181" type="car" begin="0" end="28000" number="1" from="-37585474#0" to="-23556528#1" departLane="best" departSpeed="max" departPos="random" /><flow id="flow_182" type="car" begin="0" end="28000" number="1" from="27795184#0" to="429657179#1" departLane="best" departSpeed="max" departPos="random" /><flow id="flow_183" type="car" begin="0" end="28000" number="1" from="5077438#1" to="20335075#0" departLane="best" departSpeed="max" departPos="random" /><flow id="flow_184" type="car" begin="0" end="28000" number="1" from="23418445" to="-666005684#2" departLane="best" departSpeed="max" departPos="random" /><flow id="flow_185" type="car" begin="0" end="28000" number="1" from="388915800#2" to="-429907885#0" departLane="best" departSpeed="max" departPos="random" /><flow id="flow_186" type="car" begin="0" end="28000" number="1" from="809129465#0" to="741048742" departLane="best" departSpeed="max" departPos="random" /><flow id="flow_187" type="car" begin="0" end="28000" number="1" from="150995458#3" to="5077835#0" departLane="best" departSpeed="max" departPos="random" /><flow id="flow_188" type="car" begin="0" end="28000" number="1" from="-5077469#5" to="-37585474#0" departLane="best" departSpeed="max" departPos="random" /><flow id="flow_189" type="car" begin="0" end="28000" number="1" from="429838644#1" to="-27795226" departLane="best" departSpeed="max" departPos="random" /><flow id="flow_190" type="car" begin="0" end="28000" number="1" from="809058633" to="8787737#0" departLane="best" departSpeed="max" departPos="random" /><flow id="flow_191" type="car" begin="0" end="28000" number="1" from="E9" to="23310756#1" departLane="best" departSpeed="max" departPos="random" /><flow id="flow_192" type="car" begin="0" end="28000" number="1" from="88650477#1" to="230883220#2" departLane="best" departSpeed="max" departPos="random" /><flow id="flow_193" typ