<?xml version="1.0" encoding="UTF-8"?>

<!-- generated on 2025-07-12 17:04:23.451199 by randomTrips.py v1_22_0+0002-63e50f52594
<configuration>
    <net-file value="CenturyCityNode1_V1.net.xml"/>
    <route-file value="CenturyCityNode1_V1.rou.xml"/>
    <trip-attributes value="departLane=&quot;best&quot; departSpeed=&quot;max&quot; departPos=&quot;random&quot;"/>
    <validate value="True"/>
    <end value="28000.0"/>
    <period value="2.0"/>
    <binomial value="3"/>
</configuration>
-->

<!-- generated on 2025-07-12 17:04:10 by Eclipse SUMO duarouter Version 1.22.0
<duarouterConfiguration xmlns:xsi="http://www.w3.org/2001/XMLSchema-instance" xsi:noNamespaceSchemaLocation="http://sumo.dlr.de/xsd/duarouterConfiguration.xsd">

    <input>
        <net-file value="CenturyCityNode1_V1.net.xml"/>
        <route-files value="trips.trips.xml"/>
    </input>

    <output>
        <output-file value="trips.trips.xml.tmp"/>
        <alternatives-output value="NUL"/>
        <write-trips value="true"/>
    </output>

    <time>
        <begin value="0"/>
        <end value="28000.0"/>
    </time>

    <report>
        <no-warnings value="true"/>
        <ignore-errors value="true"/>
        <no-step-log value="true"/>
    </report>

</duarouterConfiguration>
-->

<routes xmlns:xsi="http://www.w3.org/2001/XMLSchema-instance" xsi:noNamespaceSchemaLocation="http://sumo.dlr.de/xsd/routes_file.xsd">
    <trip id="0" depart="0.00" departLane="best" departPos="random" departSpeed="max" from="-5078292#1" to="-429924375#0"/>
    <trip id="2" depart="2.00" departLane="best" departPos="random" departSpeed="max" from="-30906146#2" to="388915798#1"/>
    <trip id="3" depart="4.00" departLane="best" departPos="random" departSpeed="max" from="5130793#5" to="429627480#1"/>
    <trip id="4" depart="5.00" departLane="best" departPos="random" departSpeed="max" from="809410646" to="-88362649#1"/>
    <trip id="5" depart="5.00" departLane="best" departPos="random" departSpeed="max" from="-23541047#14" to="739897707#0"/>
    <trip id="6" depart="9.00" departLane="best" departPos="random" departSpeed="max" from="-429783129" to="-666005684#2"/>
    <trip id="9" depart="16.00" departLane="best" departPos="random" departSpeed="max" from="-745392432" to="-5078292#2"/>
    <trip id="11" depart="24.00" departLane="best" departPos="random" departSpeed="max" from="15801625#1" to="E1"/>
    <trip id="12" depart="25.00" departLane="best" departPos="random" departSpeed="max" from="429783158#0" to="429321790#1"/>
    <trip id="14" depart="30.00" departLane="best" departPos="random" departSpeed="max" from="5078043#2" to="24648920#5"/>
    <trip id="16" depart="33.00" departLane="best" departPos="random" departSpeed="max" from="740747526#0" to="809129465#1"/>
    <trip id="17" depart="33.00" departLane="best" departPos="random" departSpeed="max" from="23310756#0" to="-230883198#0"/>
    <trip id="18" depart="34.00" departLane="best" departPos="random" departSpeed="max" from="230883220#0" to="24651586#1"/>
    <trip id="19" depart="38.00" departLane="best" departPos="random" departSpeed="max" from="-429400168#1" to="-88362650#1"/>
    <trip id="21" depart="41.00" departLane="best" departPos="random" departSpeed="max" from="-5077464#1" to="4268197"/>
    <trip id="24" depart="45.00" departLane="best" departPos="random" departSpeed="max" from="17666817#2" to="-88362650#2"/>
    <trip id="25" depart="49.00" departLane="best" departPos="random" departSpeed="max" from="E9" to="739610625#1"/>
    <trip id="26" depart="50.00" departLane="best" departPos="random" departSpeed="max" from="23310755#1" to="-394991539#1"/>
    <trip id="27" depart="51.00" departLane="best" departPos="random" departSpeed="max" from="150995465#1" to="88650498"/>
    <trip id="28" depart="54.00" departLane="best" departPos="random" departSpeed="max" from="-705507621#0" to="88362648#1"/>
    <trip id="31" depart="57.00" departLane="best" departPos="random" departSpeed="max" from="741115621#1" to="-5078069"/>
    <trip id="32" depart="62.00" departLane="best" departPos="random" departSpeed="max" from="230883190#2" to="E4"/>
    <trip id="33" depart="63.00" departLane="best" departPos="random" departSpeed="max" from="-38028104#1" to="-5078288"/>
    <trip id="34" depart="65.00" departLane="best" departPos="random" departSpeed="max" from="738669702" to="429657179#1"/>
    <trip id="35" depart="66.00" departLane="best" departPos="random" departSpeed="max" from="64432381" to="-741041387#1"/>
    <trip id="36" depart="67.00" departLane="best" departPos="random" departSpeed="max" from="-24646274#5" to="-24583621"/>
    <trip id="37" depart="71.00" departLane="best" departPos="random" departSpeed="max" from="220026399#0" to="-5130790#1"/>
    <trip id="38" depart="71.00" departLane="best" departPos="random" departSpeed="max" from="5078132#3" to="37585474#1"/>
    <trip id="39" depart="73.00" departLane="best" departPos="random" departSpeed="max" from="-230883211#1" to="741115621#0"/>
    <trip id="40" depart="74.00" departLane="best" departPos="random" departSpeed="max" from="-24648920#1" to="-741951493"/>
    <trip id="41" depart="77.00" departLane="best" departPos="random" departSpeed="max" from="5078168#2" to="741115622"/>
    <trip id="42" depart="78.00" departLane="best" departPos="random" departSpeed="max" from="7975895#0" to="740542374#0"/>
    <trip id="43" depart="79.00" departLane="best" departPos="random" departSpeed="max" from="4950814" to="-810553261"/>
    <trip id="44" depart="81.00" departLane="best" departPos="random" departSpeed="max" from="740543101#1" to="740541596"/>
    <trip id="45" depart="84.00" departLane="best" departPos="random" departSpeed="max" from="-27795225" to="-809410642"/>
    <trip id="48" depart="90.00" departLane="best" departPos="random" departSpeed="max" from="7975891#2" to="24648920#3"/>
    <trip id="49" depart="92.00" departLane="best" departPos="random" departSpeed="max" from="394991548#1" to="-809441426#0"/>
    <trip id="52" depart="100.00" departLane="best" departPos="random" departSpeed="max" from="23541047#3" to="30906146#6"/>
    <trip id="53" depart="103.00" departLane="best" departPos="random" departSpeed="max" from="-5078042#0" to="23310753#1"/>
    <trip id="54" depart="103.00" departLane="best" departPos="random" departSpeed="max" from="20795244#1" to="30906146#2"/>
    <trip id="55" depart="105.00" departLane="best" departPos="random" departSpeed="max" from="5077523#1" to="5078132#5"/>
    <trip id="57" depart="107.00" departLane="best" departPos="random" departSpeed="max" from="-5078043#3" to="739897707#1"/>
    <trip id="58" depart="114.00" departLane="best" departPos="random" departSpeed="max" from="-5130793#1" to="-5087934#1"/>
    <trip id="59" depart="115.00" departLane="best" departPos="random" departSpeed="max" from="-429924375#1" to="429463896#1"/>
    <trip id="60" depart="116.00" departLane="best" departPos="random" departSpeed="max" from="19992821" to="24648925#3"/>
    <trip id="61" depart="119.00" departLane="best" departPos="random" departSpeed="max" from="-88608399#3" to="5077823#2"/>
    <trip id="62" depart="123.00" departLane="best" departPos="random" departSpeed="max" from="-809404857" to="429321784#2"/>
    <trip id="63" depart="123.00" departLane="best" departPos="random" departSpeed="max" from="230883197#3" to="-24648920#4"/>
    <trip id="65" depart="124.00" departLane="best" departPos="random" departSpeed="max" from="30906146#7" to="-24651585#3"/>
    <trip id="66" depart="125.00" departLane="best" departPos="random" departSpeed="max" from="150995465#1" to="-388915800#2"/>
    <trip id="69" depart="133.00" departLane="best" departPos="random" departSpeed="max" from="666005684#1" to="8787737#3"/>
    <trip id="71" depart="135.00" departLane="best" departPos="random" departSpeed="max" from="429457297#0" to="30906146#1"/>
    <trip id="72" depart="136.00" departLane="best" departPos="random" departSpeed="max" from="5078132#5" to="739907573"/>
    <trip id="73" depart="136.00" departLane="best" departPos="random" departSpeed="max" from="88650489#0" to="5078247#1"/>
    <trip id="74" depart="139.00" departLane="best" departPos="random" departSpeed="max" from="810541428" to="315425948"/>
    <trip id="75" depart="144.00" departLane="best" departPos="random" departSpeed="max" from="741044613#0" to="-5078046#2"/>
    <trip id="76" depart="145.00" departLane="best" departPos="random" departSpeed="max" from="739896351" to="-27795219#0"/>
    <trip id="77" depart="148.00" departLane="best" departPos="random" departSpeed="max" from="809129465#0" to="-23418444"/>
    <trip id="78" depart="150.00" departLane="best" departPos="random" departSpeed="max" from="-4268194#1" to="429457301#1"/>
    <trip id="79" depart="154.00" departLane="best" departPos="random" departSpeed="max" from="-27795225" to="-24648917#1"/>
    <trip id="80" depart="157.00" departLane="best" departPos="random" departSpeed="max" from="-30906122#1" to="-5077438#3"/>
    <trip id="81" depart="158.00" departLane="best" departPos="random" departSpeed="max" from="24646274#7" to="-5105232#0"/>
    <trip id="82" depart="159.00" departLane="best" departPos="random" departSpeed="max" from="740541604" to="23418442#2"/>
    <trip id="83" depart="161.00" departLane="best" departPos="random" departSpeed="max" from="809058636" to="23310756#0"/>
    <trip id="84" depart="162.00" departLane="best" departPos="random" departSpeed="max" from="27795223#5" to="-230883178#0"/>
    <trip id="85" depart="163.00" departLane="best" departPos="random" departSpeed="max" from="252231752#0" to="-741115627#3"/>
    <trip id="86" depart="163.00" departLane="best" departPos="random" departSpeed="max" from="5078046#0" to="27795209#2"/>
    <trip id="87" depart="169.00" departLane="best" departPos="random" departSpeed="max" from="-27795200" to="-230883220#0"/>
    <trip id="89" depart="175.00" departLane="best" departPos="random" departSpeed="max" from="-27795177#3" to="-741951492#2"/>
    <trip id="91" depart="177.00" departLane="best" departPos="random" departSpeed="max" from="-22498510#4" to="22498512#2"/>
    <trip id="92" depart="178.00" departLane="best" departPos="random" departSpeed="max" from="827800868#0" to="739610625#1"/>
    <trip id="94" depart="183.00" departLane="best" departPos="random" departSpeed="max" from="-88362650#0" to="-827800868#0"/>
    <trip id="95" depart="192.00" departLane="best" departPos="random" departSpeed="max" from="88362650#2" to="27795209#5"/>
    <trip id="96" depart="193.00" departLane="best" departPos="random" departSpeed="max" from="24648925#2" to="252231750"/>
    <trip id="97" depart="193.00" departLane="best" departPos="random" departSpeed="max" from="911650625" to="745392432"/>
    <trip id="98" depart="194.00" departLane="best" departPos="random" departSpeed="max" from="738669699" to="23426836"/>
    <trip id="99" depart="202.00" departLane="best" departPos="random" departSpeed="max" from="24648917#0" to="-98853906#3"/>
    <trip id="100" depart="205.00" departLane="best" departPos="random" departSpeed="max" from="5077469#1" to="429657186#1"/>
    <trip id="101" depart="208.00" departLane="best" departPos="random" departSpeed="max" from="23418443" to="27795178"/>
    <trip id="102" depart="211.00" departLane="best" departPos="random" departSpeed="max" from="230883198#0" to="88362649#0"/>
    <trip id="103" depart="215.00" departLane="best" departPos="random" departSpeed="max" from="-230883197#1" to="30906146#4"/>
    <trip id="104" depart="216.00" departLane="best" departPos="random" departSpeed="max" from="28502990" to="741041387#0"/>
    <trip id="105" depart="218.00" departLane="best" departPos="random" departSpeed="max" from="5088169" to="-705551636"/>
    <trip id="107" depart="219.00" departLane="best" departPos="random" departSpeed="max" from="740542374#1" to="27795223#3"/>
    <trip id="108" depart="220.00" departLane="best" departPos="random" departSpeed="max" from="230883190#7" to="-5078135#5"/>
    <trip id="109" depart="221.00" departLane="best" departPos="random" departSpeed="max" from="5130793#4" to="741951492#1"/>
    <trip id="112" depart="235.00" departLane="best" departPos="random" departSpeed="max" from="-666005684#3" to="5077517#0"/>
    <trip id="113" depart="235.00" departLane="best" departPos="random" departSpeed="max" from="24648917#1" to="88362650#1"/>
    <trip id="115" depart="242.00" departLane="best" departPos="random" departSpeed="max" from="24646280#2" to="230883190#9"/>
    <trip id="117" depart="245.00" departLane="best" departPos="random" departSpeed="max" from="705507621#0" to="742235760"/>
    <trip id="118" depart="246.00" departLane="best" departPos="random" departSpeed="max" from="809129456#0" to="-741115627#4"/>
    <trip id="119" depart="247.00" departLane="best" departPos="random" departSpeed="max" from="741090360#0" to="-24651585#3"/>
    <trip id="120" depart="249.00" departLane="best" departPos="random" departSpeed="max" from="20795244#1" to="-23541047#7"/>
    <trip id="122" depart="252.00" departLane="best" departPos="random" departSpeed="max" from="429400164" to="24651582#1"/>
    <trip id="123" depart="253.00" departLane="best" departPos="random" departSpeed="max" from="739656597#0" to="230883190#9"/>
    <trip id="124" depart="255.00" departLane="best" departPos="random" departSpeed="max" from="5078289#0" to="-5078046#2"/>
    <trip id="125" depart="255.00" departLane="best" departPos="random" departSpeed="max" from="253392525#0" to="-230883197#4"/>
    <trip id="126" depart="257.00" departLane="best" departPos="random" departSpeed="max" from="741127120#0" to="-1223450449"/>
    <trip id="127" depart="258.00" departLane="best" departPos="random" departSpeed="max" from="-24648920#4" to="-5078135#0"/>
    <trip id="128" depart="259.00" departLane="best" departPos="random" departSpeed="max" from="-17666825" to="5087934#1"/>
    <trip id="129" depart="260.00" departLane="best" departPos="random" departSpeed="max" from="5077438#3" to="24646274#8"/>
    <trip id="130" depart="262.00" departLane="best" departPos="random" departSpeed="max" from="23418445" to="809129464"/>
    <trip id="131" depart="262.00" departLane="best" departPos="random" departSpeed="max" from="5078178#1" to="740543101#1"/>
    <trip id="134" depart="265.00" departLane="best" departPos="random" departSpeed="max" from="-5078292#1" to="30906146#6"/>
    <trip id="137" depart="271.00" departLane="best" departPos="random" departSpeed="max" from="794144005" to="-230883197#2"/>
    <trip id="138" depart="272.00" departLane="best" departPos="random" departSpeed="max" from="-23541047#14" to="5077438#2"/>
    <trip id="139" depart="274.00" departLane="best" departPos="random" departSpeed="max" from="-986879564" to="397864237"/>
    <trip id="141" depart="281.00" departLane="best" departPos="random" departSpeed="max" from="7975894#1" to="738672282"/>
    <trip id="145" depart="289.00" departLane="best" departPos="random" departSpeed="max" from="22376172#3" to="-5130793#5"/>
    <trip id="146" depart="291.00" departLane="best" departPos="random" departSpeed="max" from="15801640#1" to="27795194#1"/>
    <trip id="147" depart="291.00" departLane="best" departPos="random" departSpeed="max" from="-739627862" to="-388915800#1"/>
    <trip id="148" depart="291.00" departLane="best" departPos="random" departSpeed="max" from="-5078069" to="-809410642"/>
    <trip id="149" depart="292.00" departLane="best" departPos="random" departSpeed="max" from="5077469#4" to="-27795209#6"/>
    <trip id="151" depart="294.00" departLane="best" departPos="random" departSpeed="max" from="753420999" to="740541604"/>
    <trip id="153" depart="297.00" departLane="best" departPos="random" departSpeed="max" from="739610627#1" to="-5078046#2"/>
    <trip id="154" depart="300.00" departLane="best" departPos="random" departSpeed="max" from="23429616#1" to="742226154"/>
    <trip id="155" depart="302.00" departLane="best" departPos="random" departSpeed="max" from="-30906146#11" to="27795200"/>
    <trip id="157" depart="308.00" departLane="best" departPos="random" departSpeed="max" from="23426839#0" to="-745392432"/>
    <trip id="158" depart="309.00" departLane="best" departPos="random" departSpeed="max" from="738359305#2" to="-230883223"/>
    <trip id="159" depart="314.00" departLane="best" departPos="random" departSpeed="max" from="-230883190#4" to="-24583620#0"/>
    <trip id="160" depart="317.00" departLane="best" departPos="random" departSpeed="max" from="150995446#0" to="-5130793#5"/>
    <trip id="161" depart="319.00" departLane="best" departPos="random" departSpeed="max" from="-23541047#1" to="429321784#1"/>
    <trip id="162" depart="322.00" departLane="best" departPos="random" departSpeed="max" from="-88362650#3" to="88362648#0"/>
    <trip id="163" depart="329.00" departLane="best" departPos="random" departSpeed="max" from="-230883219" to="739659722"/>
    <trip id="164" depart="330.00" departLane="best" departPos="random" departSpeed="max" from="5078132#3" to="739610624#2"/>
    <trip id="165" depart="330.00" departLane="best" departPos="random" departSpeed="max" from="-809410640#1" to="5078068#2"/>
    <trip id="166" depart="331.00" departLane="best" departPos="random" departSpeed="max" from="150995458#3" to="-27795184#0"/>
    <trip id="168" depart="339.00" departLane="best" departPos="random" departSpeed="max" from="-5078043#4" to="37664790#1"/>
    <trip id="169" depart="340.00" departLane="best" departPos="random" departSpeed="max" from="739627863#1" to="739907574"/>
    <trip id="172" depart="345.00" departLane="best" departPos="random" departSpeed="max" from="7975895#1" to="739627862"/>
    <trip id="173" depart="346.00" departLane="best" departPos="random" departSpeed="max" from="-5130793#3" to="738675554#1"/>
    <trip id="174" depart="346.00" departLane="best" departPos="random" departSpeed="max" from="429657175" to="230883190#0"/>
    <trip id="175" depart="347.00" departLane="best" departPos="random" departSpeed="max" from="-230883220#1" to="-5078168#0"/>
    <trip id="176" depart="348.00" departLane="best" departPos="random" departSpeed="max" from="-5130793#5" to="-741044611#1"/>
    <trip id="178" depart="349.00" departLane="best" departPos="random" departSpeed="max" from="741945246#1" to="27795189#1"/>
    <trip id="179" depart="350.00" departLane="best" departPos="random" departSpeed="max" from="23541047#3" to="-5078046#0"/>
    <trip id="180" depart="350.00" departLane="best" departPos="random" departSpeed="max" from="22376172#2" to="27795219#0"/>
    <trip id="181" depart="351.00" departLane="best" departPos="random" departSpeed="max" from="88608399#0" to="-230883197#3"/>
    <trip id="182" depart="355.00" departLane="best" departPos="random" departSpeed="max" from="5078292#1" to="-98853906#3"/>
    <trip id="183" depart="357.00" departLane="best" departPos="random" departSpeed="max" from="24648920#2" to="666005684#1"/>
    <trip id="184" depart="359.00" departLane="best" departPos="random" departSpeed="max" from="5078135#5" to="230883197#0"/>
    <trip id="186" depart="364.00" departLane="best" departPos="random" departSpeed="max" from="1359646087" to="741115627#5"/>
    <trip id="187" depart="367.00" departLane="best" departPos="random" departSpeed="max" from="27795189#1" to="720173687#0"/>
    <trip id="188" depart="368.00" departLane="best" departPos="random" departSpeed="max" from="394991539#1" to="-741951492#0"/>
    <trip id="190" depart="372.00" departLane="best" departPos="random" departSpeed="max" from="30906146#11" to="150995458#3"/>
    <trip id="191" depart="373.00" departLane="best" departPos="random" departSpeed="max" from="27795198#0" to="5078180#0"/>
    <trip id="192" depart="373.00" departLane="best" departPos="random" departSpeed="max" from="-230883196" to="5078168#3"/>
    <trip id="193" depart="378.00" departLane="best" departPos="random" departSpeed="max" from="429924386#0" to="23426839#0"/>
    <trip id="194" depart="381.00" departLane="best" departPos="random" departSpeed="max" from="739897706" to="230883190#6"/>
    <trip id="195" depart="382.00" departLane="best" departPos="random" departSpeed="max" from="429321784#1" to="739896351"/>
    <trip id="196" depart="383.00" departLane="best" departPos="random" departSpeed="max" from="24648919#0" to="741115628#0"/>
    <trip id="197" depart="386.00" departLane="best" departPos="random" departSpeed="max" from="-30906146#5" to="-26408915#2"/>
    <trip id="198" depart="386.00" departLane="best" departPos="random" departSpeed="max" from="24651583" to="15801624#1"/>
    <trip id="199" depart="388.00" departLane="best" departPos="random" departSpeed="max" from="-741115627#4" to="E9"/>
    <trip id="200" depart="389.00" departLane="best" departPos="random" departSpeed="max" from="88362650#1" to="37664793#0"/>
    <trip id="202" depart="393.00" departLane="best" departPos="random" departSpeed="max" from="-809095858" to="429657195"/>
    <trip id="203" depart="396.00" departLane="best" departPos="random" departSpeed="max" from="-739656593" to="24648919#1"/>
    <trip id="204" depart="397.00" departLane="best" departPos="random" departSpeed="max" from="388915800#0" to="429838641"/>
    <trip id="208" depart="408.00" departLane="best" departPos="random" departSpeed="max" from="-5130797#0" to="15801640#1"/>
    <trip id="211" depart="413.00" departLane="best" departPos="random" departSpeed="max" from="23418440#2" to="741096486"/>
    <trip id="212" depart="418.00" departLane="best" departPos="random" departSpeed="max" from="23418446" to="5078068#0"/>
    <trip id="213" depart="419.00" departLane="best" departPos="random" departSpeed="max" from="88608399#3" to="17666829#0"/>
    <trip id="214" depart="422.00" departLane="best" departPos="random" departSpeed="max" from="-24651585#2" to="-827800868#0"/>
    <trip id="215" depart="424.00" departLane="best" departPos="random" departSpeed="max" from="89599142#0" to="5077438#3"/>
    <trip id="216" depart="429.00" departLane="best" departPos="random" departSpeed="max" from="230883217#1" to="88362646"/>
    <trip id="217" depart="433.00" departLane="best" departPos="random" departSpeed="max" from="429321783#0" to="-22376172#4"/>
    <trip id="220" depart="435.00" departLane="best" departPos="random" departSpeed="max" from="-24651585#3" to="-38028104#1"/>
    <trip id="221" depart="445.00" departLane="best" departPos="random" departSpeed="max" from="429321778#5" to="15801638#0"/>
    <trip id="222" depart="450.00" departLane="best" departPos="random" departSpeed="max" from="27795209#4" to="27702189#7"/>
    <trip id="224" depart="452.00" departLane="best" departPos="random" departSpeed="max" from="5078132#3" to="-150995420#0"/>
    <trip id="228" depart="468.00" departLane="best" departPos="random" departSpeed="max" from="397864235#0" to="-27795222#0"/>
    <trip id="230" depart="471.00" departLane="best" departPos="random" departSpeed="max" from="388915796#1" to="429463895"/>
    <trip id="231" depart="471.00" departLane="best" departPos="random" departSpeed="max" from="-24646274#8" to="-741951492#0"/>
    <trip id="232" depart="473.00" departLane="best" departPos="random" departSpeed="max" from="742235761" to="-705562065#0"/>
    <trip id="235" depart="478.00" departLane="best" departPos="random" departSpeed="max" from="252231752#1" to="-230883190#7"/>
    <trip id="236" depart="480.00" departLane="best" departPos="random" departSpeed="max" from="-809129460#0" to="24583624"/>
    <trip id="237" depart="480.00" departLane="best" departPos="random" departSpeed="max" from="-315425949" to="27702189#2"/>
    <trip id="238" depart="480.00" departLane="best" departPos="random" departSpeed="max" from="23429616#1" to="540231512"/>
    <trip id="240" depart="484.00" departLane="best" departPos="random" departSpeed="max" from="-88362645" to="-230883193"/>
    <trip id="242" depart="492.00" departLane="best" departPos="random" departSpeed="max" from="-220026399#0" to="-739656593"/>
    <trip id="243" depart="495.00" departLane="best" departPos="random" departSpeed="max" from="5130798" to="22376172#3"/>
    <trip id="244" depart="496.00" departLane="best" departPos="random" departSpeed="max" from="-37585474#0" to="-23556528#1"/>
    <trip id="245" depart="497.00" departLane="best" departPos="random" departSpeed="max" from="27795184#0" to="429657179#1"/>
    <trip id="246" depart="497.00" departLane="best" departPos="random" departSpeed="max" from="5077438#1" to="20335075#0"/>
    <trip id="247" depart="498.00" departLane="best" departPos="random" departSpeed="max" from="23418445" to="-666005684#2"/>
    <trip id="248" depart="501.00" departLane="best" departPos="random" departSpeed="max" from="388915800#2" to="-429907885#0"/>
    <trip id="249" depart="502.00" departLane="best" departPos="random" departSpeed="max" from="809129465#0" to="741048742"/>
    <trip id="250" depart="505.00" departLane="best" departPos="random" departSpeed="max" from="150995458#3" to="5077835#0"/>
    <trip id="251" depart="509.00" departLane="best" departPos="random" departSpeed="max" from="-5077469#5" to="-37585474#0"/>
    <trip id="252" depart="510.00" departLane="best" departPos="random" departSpeed="max" from="429838644#1" to="-27795226"/>
    <trip id="253" depart="514.00" departLane="best" departPos="random" departSpeed="max" from="809058633" to="8787737#0"/>
    <trip id="254" depart="515.00" departLane="best" departPos="random" departSpeed="max" from="E9" to="23310756#1"/>
    <trip id="255" depart="519.00" departLane="best" departPos="random" departSpeed="max" from="88650477#1" to="230883220#2"/>
    <trip id="256" depart="521.00" departLane="best" departPos="random" departSpeed="max" from="-5078135#2" to="809058637#0"/>
    <trip id="257" depart="522.00" departLane="best" departPos="random" departSpeed="max" from="-809129461" to="15801638#0"/>
    <trip id="259" depart="531.00" departLane="best" departPos="random" departSpeed="max" from="23426830#1" to="15801630#0"/>
    <trip id="260" depart="533.00" departLane="best" departPos="random" departSpeed="max" from="24648925#3" to="-150995468"/>
    <trip id="264" depart="541.00" departLane="best" departPos="random" departSpeed="max" from="-150995458#3" to="-27795209#0"/>
    <trip id="266" depart="545.00" departLane="best" departPos="random" departSpeed="max" from="-230883211#0" to="7975896#0"/>
    <trip id="267" depart="546.00" departLane="best" departPos="random" departSpeed="max" from="7975894#1" to="-809058635"/>
    <trip id="269" depart="550.00" departLane="best" departPos="random" departSpeed="max" from="88650504#0" to="429838647#0"/>
    <trip id="271" depart="553.00" departLane="best" departPos="random" departSpeed="max" from="-5078248" to="911650625"/>
    <trip id="274" depart="557.00" departLane="best" departPos="random" departSpeed="max" from="-150995420#3" to="-741951493"/>
    <trip id="275" depart="558.00" departLane="best" departPos="random" departSpeed="max" from="-27795219#3" to="230883190#0"/>
    <trip id="276" depart="559.00" departLane="best" departPos="random" departSpeed="max" from="-986879564" to="-23541047#10"/>
    <trip id="277" depart="561.00" departLane="best" departPos="random" departSpeed="max" from="741127120#1" to="742215205"/>
    <trip id="278" depart="563.00" departLane="best" departPos="random" departSpeed="max" from="-739603203" to="23418442#5"/>
    <trip id="279" depart="563.00" departLane="best" departPos="random" departSpeed="max" from="22498461#4" to="22498461#0"/>
    <trip id="280" depart="564.00" departLane="best" departPos="random" departSpeed="max" from="-5078046#1" to="-5078069"/>
    <trip id="281" depart="565.00" departLane="best" departPos="random" departSpeed="max" from="-741044611#0" to="809404855#1"/>
    <trip id="282" depart="568.00" departLane="best" departPos="random" departSpeed="max" from="-809058637#0" to="809404853"/>
    <trip id="283" depart="572.00" departLane="best" departPos="random" departSpeed="max" from="252231752#1" to="27795184#0"/>
    <trip id="284" depart="579.00" departLane="best" departPos="random" departSpeed="max" from="89599142#0" to="23310757"/>
    <trip id="285" depart="582.00" departLane="best" departPos="random" departSpeed="max" from="5078069" to="394991546#0"/>
    <trip id="286" depart="583.00" departLane="best" departPos="random" departSpeed="max" from="88650486#0" to="429321783#1"/>
    <trip id="287" depart="585.00" departLane="best" departPos="random" departSpeed="max" from="-5078132#5" to="23543702"/>
    <trip id="290" depart="593.00" departLane="best" departPos="random" departSpeed="max" from="739656598#0" to="388915796#1"/>
    <trip id="291" depart="593.00" departLane="best" departPos="random" departSpeed="max" from="88650489#0" to="-5078046#2"/>
    <trip id="292" depart="594.00" departLane="best" departPos="random" departSpeed="max" from="252231735#1" to="809441427"/>
    <trip id="293" depart="596.00" departLane="best" departPos="random" departSpeed="max" from="27795209#2" to="-30906146#4"/>
    <trip id="294" depart="598.00" departLane="best" departPos="random" departSpeed="max" from="-23541047#8" to="740779985"/>
    <trip id="295" depart="604.00" departLane="best" departPos="random" departSpeed="max" from="-24651582#0" to="-24646289"/>
    <trip id="296" depart="606.00" departLane="best" departPos="random" departSpeed="max" from="15801630#0" to="-27795222#1"/>
    <trip id="298" depart="609.00" departLane="best" departPos="random" departSpeed="max" from="1223450449" to="-150995458#1"/>
    <trip id="299" depart="609.00" departLane="best" departPos="random" departSpeed="max" from="5492198#0" to="8787737#2"/>
    <trip id="300" depart="612.00" departLane="best" departPos="random" departSpeed="max" from="-22376172#5" to="5078043#3"/>
    <trip id="301" depart="615.00" departLane="best" departPos="random" departSpeed="max" from="-24646274#3" to="5078135#6"/>